<?xml version="1.0" encoding="UTF-8"?>

<!-- generated on 2026-06-23 18:05:33.544665 by Eclipse SUMO randomTrips.py v1_27_0+0000-e238ea04b71
<configuration>
    <net-file value="python/scenario/corridor.net.xml"/>
    <output-trip-file value="python/scenario/corridor.trips.xml"/>
    <route-file value="python/scenario/corridor.rou.xml"/>
    <vehicle-class value="passenger"/>
    <fringe-factor value="5"/>
    <min-distance value="300.0"/>
    <end value="900.0"/>
    <period value="3.0"/>
</configuration>
-->

<routes xmlns:xsi="http://www.w3.org/2001/XMLSchema-instance" xsi:noNamespaceSchemaLocation="http://sumo.dlr.de/xsd/routes_file.xsd">
    <vType id="passenger" vClass="passenger"/>
    <trip id="0" depart="0.00" from="35835521#0" to="-1302261845#1" type="passenger"/>
    <trip id="1" depart="3.00" from="-36795883#2" to="-36784199#2" type="passenger"/>
    <trip id="2" depart="6.00" from="36784360#0" to="36783528#0" type="passenger"/>
    <trip id="3" depart="9.00" from="36921403#0" to="-25373638#8" type="passenger"/>
    <trip id="4" depart="12.00" from="-5756811#5" to="-1317846850" type="passenger"/>
    <trip id="5" depart="15.00" from="-36784251#3" to="1441844724" type="passenger"/>
    <trip id="6" depart="18.00" from="-1312645393#11" to="-36783561" type="passenger"/>
    <trip id="7" depart="21.00" from="35835599" to="23799280#0" type="passenger"/>
    <trip id="8" depart="24.00" from="-36784261" to="306060296#0" type="passenger"/>
    <trip id="9" depart="27.00" from="36796062#0" to="-123420834#1" type="passenger"/>
    <trip id="10" depart="30.00" from="36796044#0" to="36783666#0" type="passenger"/>
    <trip id="11" depart="33.00" from="-36859102#1" to="-35835542" type="passenger"/>
    <trip id="12" depart="36.00" from="4935184#0" to="-36855333#2" type="passenger"/>
    <trip id="13" depart="39.00" from="-26296427#1" to="-25791247#0" type="passenger"/>
    <trip id="14" depart="42.00" from="36858940#1" to="341498245#0" type="passenger"/>
    <trip id="15" depart="45.00" from="36796053#0" to="36784353#18" type="passenger"/>
    <trip id="16" depart="48.00" from="-37229660#1" to="24488213#3" type="passenger"/>
    <trip id="17" depart="51.00" from="36803733#0" to="354413104#0" type="passenger"/>
    <trip id="18" depart="54.00" from="36859219#2" to="27898844#0" type="passenger"/>
    <trip id="19" depart="57.00" from="36783684#0" to="-1414589359#3" type="passenger"/>
    <trip id="20" depart="60.00" from="-36784314#3" to="-36795886#1" type="passenger"/>
    <trip id="21" depart="63.00" from="-25022809#12" to="-36784263" type="passenger"/>
    <trip id="22" depart="66.00" from="-31876704#3" to="-36795837#4" type="passenger"/>
    <trip id="23" depart="69.00" from="35835488" to="-36859245#1" type="passenger"/>
    <trip id="24" depart="72.00" from="-36886075#2" to="-36783638#1" type="passenger"/>
    <trip id="25" depart="75.00" from="-36795843#2" to="437221764#11" type="passenger"/>
    <trip id="26" depart="78.00" from="35835588#0" to="35303755" type="passenger"/>
    <trip id="27" depart="81.00" from="-35836134#1" to="36784353#0" type="passenger"/>
    <trip id="28" depart="84.00" from="-35835663" to="-36886057" type="passenger"/>
    <trip id="29" depart="87.00" from="8162192#0" to="35835481#0" type="passenger"/>
    <trip id="30" depart="90.00" from="25465461#1" to="36783586#0" type="passenger"/>
    <trip id="31" depart="93.00" from="36858793#0" to="36795882#0" type="passenger"/>
    <trip id="32" depart="96.00" from="-36784316" to="-1348059169" type="passenger"/>
    <trip id="33" depart="99.00" from="-36797533#4" to="-36795782#1" type="passenger"/>
    <trip id="34" depart="102.00" from="-36784205" to="444618382" type="passenger"/>
    <trip id="35" depart="105.00" from="36861260#0" to="-36796053#1" type="passenger"/>
    <trip id="36" depart="108.00" from="35835650" to="-42140834#1" type="passenger"/>
    <trip id="37" depart="111.00" from="39210630#0" to="1267142217#0" type="passenger"/>
    <trip id="38" depart="114.00" from="-36795834#8" to="-36784353#1" type="passenger"/>
    <trip id="39" depart="117.00" from="25542530#0" to="-36795759#1" type="passenger"/>
    <trip id="40" depart="120.00" from="320607699#0" to="37192025#2" type="passenger"/>
    <trip id="41" depart="123.00" from="-445715249#1" to="-36784182#1" type="passenger"/>
    <trip id="42" depart="126.00" from="940826335#0" to="1489280484" type="passenger"/>
    <trip id="43" depart="129.00" from="-25542534#0" to="-1426805811#2" type="passenger"/>
    <trip id="44" depart="132.00" from="-35303707#1" to="35798440#0" type="passenger"/>
    <trip id="45" depart="135.00" from="36795962#12" to="-500279618#0" type="passenger"/>
    <trip id="46" depart="138.00" from="-214372067" to="-36886099#3" type="passenger"/>
    <trip id="47" depart="141.00" from="5284475#0" to="36859236#3" type="passenger"/>
    <trip id="48" depart="144.00" from="-1267142216" to="36784302#0" type="passenger"/>
    <trip id="49" depart="147.00" from="36783542#0" to="226442368#0" type="passenger"/>
    <trip id="50" depart="150.00" from="-36795841#1" to="35835490#0" type="passenger"/>
    <trip id="51" depart="153.00" from="-35303724#1" to="-768427592#5" type="passenger"/>
    <trip id="52" depart="156.00" from="1288863197#0" to="458692191#0" type="passenger"/>
    <trip id="53" depart="159.00" from="36861173#1" to="-36795763#10" type="passenger"/>
    <trip id="54" depart="162.00" from="1490021005#0" to="-35836086#1" type="passenger"/>
    <trip id="55" depart="165.00" from="39206418#0" to="36861153#0" type="passenger"/>
    <trip id="56" depart="168.00" from="-36796038#2" to="35800147#0" type="passenger"/>
    <trip id="57" depart="171.00" from="35349701#0" to="-35835533" type="passenger"/>
    <trip id="58" depart="174.00" from="36795793#6" to="227817710#0" type="passenger"/>
    <trip id="59" depart="177.00" from="36795871#0" to="217698722" type="passenger"/>
    <trip id="60" depart="180.00" from="-1095431556#1" to="-36796115#1" type="passenger"/>
    <trip id="61" depart="183.00" from="-129705856#9" to="43224066#0" type="passenger"/>
    <trip id="62" depart="186.00" from="36886023#0" to="36854987#0" type="passenger"/>
    <trip id="63" depart="189.00" from="-36796105#1" to="-1493513582#1" type="passenger"/>
    <trip id="64" depart="192.00" from="36861695#0" to="446037867#0" type="passenger"/>
    <trip id="65" depart="195.00" from="-25465399#1" to="135953624#0" type="passenger"/>
    <trip id="66" depart="198.00" from="-22486540#1" to="36795800#0" type="passenger"/>
    <trip id="67" depart="201.00" from="36795815#0" to="-35796870#1" type="passenger"/>
    <trip id="68" depart="204.00" from="135953628" to="23809840#3" type="passenger"/>
    <trip id="69" depart="207.00" from="-36795835#1" to="36861158#0" type="passenger"/>
    <trip id="70" depart="210.00" from="-632963004" to="-36783654#4" type="passenger"/>
    <trip id="71" depart="213.00" from="24488180#0" to="36784353#2" type="passenger"/>
    <trip id="72" depart="216.00" from="-36783656#1" to="-36796040" type="passenger"/>
    <trip id="73" depart="219.00" from="890834839#0" to="35835589" type="passenger"/>
    <trip id="74" depart="222.00" from="123419540" to="1497037677" type="passenger"/>
    <trip id="75" depart="225.00" from="-35350365#1" to="-36784210#2" type="passenger"/>
    <trip id="76" depart="228.00" from="-36859054#1" to="298856103" type="passenger"/>
    <trip id="77" depart="231.00" from="-36784322#1" to="-36784187#2" type="passenger"/>
    <trip id="78" depart="234.00" from="-227679319" to="35798474" type="passenger"/>
    <trip id="79" depart="237.00" from="-36784316" to="37229697#0" type="passenger"/>
    <trip id="80" depart="240.00" from="36859107#0" to="-22486648#6" type="passenger"/>
    <trip id="81" depart="243.00" from="-36784371#11" to="36548449#4" type="passenger"/>
    <trip id="82" depart="246.00" from="-36784228#1" to="-35798436" type="passenger"/>
    <trip id="83" depart="249.00" from="43737881" to="26296426#0" type="passenger"/>
    <trip id="84" depart="252.00" from="1353953505" to="36795943#3" type="passenger"/>
    <trip id="85" depart="255.00" from="36796053#0" to="-36783519#1" type="passenger"/>
    <trip id="86" depart="258.00" from="-27944956" to="-632741895#1" type="passenger"/>
    <trip id="87" depart="261.00" from="-632963007#17" to="128944340#0" type="passenger"/>
    <trip id="88" depart="264.00" from="36784321#0" to="36781735#0" type="passenger"/>
    <trip id="89" depart="267.00" from="-44705953#17" to="-36858732#3" type="passenger"/>
    <trip id="90" depart="270.00" from="36859219#2" to="-36784357#1" type="passenger"/>
    <trip id="91" depart="273.00" from="-36783591#2" to="122317451#0" type="passenger"/>
    <trip id="92" depart="276.00" from="-5756811#3" to="-36795840#1" type="passenger"/>
    <trip id="93" depart="279.00" from="-36792204" to="417876560" type="passenger"/>
    <trip id="94" depart="282.00" from="1264415651#0" to="36859237#0" type="passenger"/>
    <trip id="95" depart="285.00" from="25372422#0" to="-1447288030" type="passenger"/>
    <trip id="96" depart="288.00" from="986681310#0" to="36858790#0" type="passenger"/>
    <trip id="97" depart="291.00" from="50888404" to="42140835#0" type="passenger"/>
    <trip id="98" depart="294.00" from="36858948#0" to="-35835641#1" type="passenger"/>
    <trip id="99" depart="297.00" from="1382966531" to="-36783665#1" type="passenger"/>
    <trip id="100" depart="300.00" from="-44705946" to="-1494337390" type="passenger"/>
    <trip id="101" depart="303.00" from="-37229937#2" to="632741895#0" type="passenger"/>
    <trip id="102" depart="306.00" from="-36795836#2" to="36795940#0" type="passenger"/>
    <trip id="103" depart="309.00" from="1288863204" to="-500279618#1" type="passenger"/>
    <trip id="104" depart="312.00" from="4935184#0" to="874152049#0" type="passenger"/>
    <trip id="105" depart="315.00" from="25465436#0" to="36784283#0" type="passenger"/>
    <trip id="106" depart="318.00" from="-35835593#1" to="-36795944#1" type="passenger"/>
    <trip id="107" depart="321.00" from="50888397#0" to="27944957#1" type="passenger"/>
    <trip id="108" depart="324.00" from="24488235#0" to="36792198#0" type="passenger"/>
    <trip id="109" depart="327.00" from="-1494342374#1" to="291406213#0" type="passenger"/>
    <trip id="110" depart="330.00" from="1492452926#0" to="36859102#0" type="passenger"/>
    <trip id="111" depart="333.00" from="-35835632#1" to="4934659#1" type="passenger"/>
    <trip id="112" depart="336.00" from="-25022809#12" to="-36548471#1" type="passenger"/>
    <trip id="113" depart="339.00" from="350456002#0" to="36783519#0" type="passenger"/>
    <trip id="114" depart="342.00" from="-36784356" to="-35303749#3" type="passenger"/>
    <trip id="115" depart="345.00" from="36921203#0" to="-36784351#2" type="passenger"/>
    <trip id="116" depart="348.00" from="350456002#0" to="35796808#0" type="passenger"/>
    <trip id="117" depart="351.00" from="-5341174#3" to="291406211#0" type="passenger"/>
    <trip id="118" depart="354.00" from="22486527#0" to="43328162#2" type="passenger"/>
    <trip id="119" depart="357.00" from="-36783675#1" to="36784267#0" type="passenger"/>
    <trip id="120" depart="360.00" from="-36784371#6" to="-42140834#1" type="passenger"/>
    <trip id="121" depart="363.00" from="36548461" to="-36795962#12" type="passenger"/>
    <trip id="122" depart="366.00" from="-36798620#7" to="36795763#14" type="passenger"/>
    <trip id="123" depart="369.00" from="-227818179#2" to="1267048988#1" type="passenger"/>
    <trip id="124" depart="372.00" from="986681310#0" to="890834839#0" type="passenger"/>
    <trip id="125" depart="375.00" from="-232196664#7" to="-36783662#2" type="passenger"/>
    <trip id="126" depart="378.00" from="-36795836#2" to="43326402#12" type="passenger"/>
    <trip id="127" depart="381.00" from="-36886073#1" to="-35835554" type="passenger"/>
    <trip id="128" depart="384.00" from="36804787#0" to="36784188" type="passenger"/>
    <trip id="129" depart="387.00" from="35796835#0" to="70509991#1" type="passenger"/>
    <trip id="130" depart="390.00" from="35835643#2" to="-1263661528#1" type="passenger"/>
    <trip id="131" depart="393.00" from="36796114" to="-36795962#1" type="passenger"/>
    <trip id="132" depart="396.00" from="35835702#0" to="437477409#1" type="passenger"/>
    <trip id="133" depart="399.00" from="-35798463#1" to="-35303711#1" type="passenger"/>
    <trip id="134" depart="402.00" from="-33724741#1" to="24488218" type="passenger"/>
    <trip id="135" depart="405.00" from="-36795869#2" to="35303711#0" type="passenger"/>
    <trip id="136" depart="408.00" from="36784256#0" to="-36783603#2" type="passenger"/>
    <trip id="137" depart="411.00" from="35800146#0" to="-36795763#14" type="passenger"/>
    <trip id="138" depart="414.00" from="1392698562#0" to="37229696" type="passenger"/>
    <trip id="139" depart="417.00" from="36858934#0" to="-25542108#1" type="passenger"/>
    <trip id="140" depart="420.00" from="-632963007#17" to="-36795834#3" type="passenger"/>
    <trip id="141" depart="423.00" from="-1194951366" to="36795858#0" type="passenger"/>
    <trip id="142" depart="426.00" from="35835498" to="-36792204" type="passenger"/>
    <trip id="143" depart="429.00" from="36784858#0" to="24488206#0" type="passenger"/>
    <trip id="144" depart="432.00" from="-81799046#1" to="-1264441187#1" type="passenger"/>
    <trip id="145" depart="435.00" from="-23809868" to="36886057" type="passenger"/>
    <trip id="146" depart="438.00" from="37229937#5" to="23799282#0" type="passenger"/>
    <trip id="147" depart="441.00" from="36804807#0" to="286784394#0" type="passenger"/>
    <trip id="148" depart="444.00" from="-35835522#2" to="-35796844" type="passenger"/>
    <trip id="149" depart="447.00" from="-36796109#2" to="37229596#0" type="passenger"/>
    <trip id="150" depart="450.00" from="36795968#1" to="36859236#0" type="passenger"/>
    <trip id="151" depart="453.00" from="37229622" to="-36783641#1" type="passenger"/>
    <trip id="152" depart="456.00" from="-36792202" to="-285901198" type="passenger"/>
    <trip id="153" depart="459.00" from="36795882#0" to="36886073#0" type="passenger"/>
    <trip id="154" depart="462.00" from="-458692191#1" to="35796840#0" type="passenger"/>
    <trip id="155" depart="465.00" from="-35835592#1" to="43248793#0" type="passenger"/>
    <trip id="156" depart="468.00" from="36859235#0" to="5284713#2" type="passenger"/>
    <trip id="157" depart="471.00" from="36796081#0" to="36886045#0" type="passenger"/>
    <trip id="158" depart="474.00" from="-1302266980#1" to="36785159#0" type="passenger"/>
    <trip id="159" depart="477.00" from="-36859026#2" to="43307631#6" type="passenger"/>
    <trip id="160" depart="480.00" from="36796035" to="36859313#0" type="passenger"/>
    <trip id="161" depart="483.00" from="36796078#0" to="-36795773#2" type="passenger"/>
    <trip id="162" depart="486.00" from="36795932#0" to="-33635431#8" type="passenger"/>
    <trip id="163" depart="489.00" from="36861120#3" to="36859226#0" type="passenger"/>
    <trip id="164" depart="492.00" from="-36784277#2" to="36796633#0" type="passenger"/>
    <trip id="165" depart="495.00" from="129726925#2" to="-36795982#2" type="passenger"/>
    <trip id="166" depart="498.00" from="36795966#2" to="-36784229#3" type="passenger"/>
    <trip id="167" depart="501.00" from="-1301991303#1" to="-36783532#2" type="passenger"/>
    <trip id="168" depart="504.00" from="-36858939#1" to="36859315#0" type="passenger"/>
    <trip id="169" depart="507.00" from="50887296#0" to="-36795846#2" type="passenger"/>
    <trip id="170" depart="510.00" from="35835539#0" to="-43307631#1" type="passenger"/>
    <trip id="171" depart="513.00" from="61108960#0" to="225754958#0" type="passenger"/>
    <trip id="172" depart="516.00" from="439600159#2" to="-35303711#1" type="passenger"/>
    <trip id="173" depart="519.00" from="525850666#1" to="-35836086#0" type="passenger"/>
    <trip id="174" depart="522.00" from="5023342#1" to="-36795763#29" type="passenger"/>
    <trip id="175" depart="525.00" from="-33725369#2" to="-715400560#5" type="passenger"/>
    <trip id="176" depart="528.00" from="36784318#0" to="-36796049#5" type="passenger"/>
    <trip id="177" depart="531.00" from="35346521" to="1491089984" type="passenger"/>
    <trip id="178" depart="534.00" from="-41364197#1" to="27552160" type="passenger"/>
    <trip id="179" depart="537.00" from="-36795773#2" to="36784224#0" type="passenger"/>
    <trip id="180" depart="540.00" from="-1178329065" to="41841487" type="passenger"/>
    <trip id="181" depart="543.00" from="23809840#3" to="36784293" type="passenger"/>
    <trip id="182" depart="546.00" from="36787087#0" to="36548464#0" type="passenger"/>
    <trip id="183" depart="549.00" from="-36886036#1" to="-22486528#9" type="passenger"/>
    <trip id="184" depart="552.00" from="35836007#0" to="-36798620#3" type="passenger"/>
    <trip id="185" depart="555.00" from="-36796139#3" to="36859046#0" type="passenger"/>
    <trip id="186" depart="558.00" from="36784268#0" to="-36795962#14" type="passenger"/>
    <trip id="187" depart="561.00" from="-36796115#1" to="-44311409#1" type="passenger"/>
    <trip id="188" depart="564.00" from="-44705953#15" to="-36795937#4" type="passenger"/>
    <trip id="189" depart="567.00" from="-35798419" to="-498960133#2" type="passenger"/>
    <trip id="190" depart="570.00" from="44311409#0" to="36783531#0" type="passenger"/>
    <trip id="191" depart="573.00" from="37229937#0" to="35349680#0" type="passenger"/>
    <trip id="192" depart="576.00" from="-36796056#2" to="23809604#0" type="passenger"/>
    <trip id="193" depart="579.00" from="-1095431556#1" to="-36795875#0" type="passenger"/>
    <trip id="194" depart="582.00" from="-89185047" to="282954485#0" type="passenger"/>
    <trip id="195" depart="585.00" from="35835643#7" to="1288863207#0" type="passenger"/>
    <trip id="196" depart="588.00" from="1263661529#0" to="-36783665#1" type="passenger"/>
    <trip id="197" depart="591.00" from="36795968#0" to="-35835657" type="passenger"/>
    <trip id="198" depart="594.00" from="-25431590#0" to="1493513579#0" type="passenger"/>
    <trip id="199" depart="597.00" from="35798707#0" to="-36854991#1" type="passenger"/>
    <trip id="200" depart="600.00" from="36796122#0" to="36795761" type="passenger"/>
    <trip id="201" depart="603.00" from="36548471#0" to="-36784210#2" type="passenger"/>
    <trip id="202" depart="606.00" from="-36783641#1" to="-1301989568#5" type="passenger"/>
    <trip id="203" depart="609.00" from="-36792191#1" to="1312645393#3" type="passenger"/>
    <trip id="204" depart="612.00" from="36858952" to="-228428530#1" type="passenger"/>
    <trip id="205" depart="615.00" from="-5023342#6" to="35798467#0" type="passenger"/>
    <trip id="206" depart="618.00" from="-36783615#2" to="36783656#0" type="passenger"/>
    <trip id="207" depart="621.00" from="1444513554" to="-36784330#3" type="passenger"/>
    <trip id="208" depart="624.00" from="35835653" to="-123419541#1" type="passenger"/>
    <trip id="209" depart="627.00" from="36792197#1" to="36795849#0" type="passenger"/>
    <trip id="210" depart="630.00" from="-33724739#0" to="-5025495#8" type="passenger"/>
    <trip id="211" depart="633.00" from="-36548473" to="488608476#0" type="passenger"/>
    <trip id="212" depart="636.00" from="205718510" to="-1445725777#1" type="passenger"/>
    <trip id="213" depart="639.00" from="-36792201#1" to="36859047#0" type="passenger"/>
    <trip id="214" depart="642.00" from="1288872291#0" to="36796043#2" type="passenger"/>
    <trip id="215" depart="645.00" from="35836537#0" to="70513253#0" type="passenger"/>
    <trip id="216" depart="648.00" from="352702459#0" to="44705953#9" type="passenger"/>
    <trip id="217" depart="651.00" from="36921396" to="35303777#0" type="passenger"/>
    <trip id="218" depart="654.00" from="36784266#0" to="1426768093#0" type="passenger"/>
    <trip id="219" depart="657.00" from="36804004#0" to="23809604#0" type="passenger"/>
    <trip id="220" depart="660.00" from="37229604#0" to="36791859#0" type="passenger"/>
    <trip id="221" depart="663.00" from="135953624#0" to="-36792192" type="passenger"/>
    <trip id="222" depart="666.00" from="-36792197#3" to="35798707#0" type="passenger"/>
    <trip id="223" depart="669.00" from="36795815#0" to="180046153#2" type="passenger"/>
    <trip id="224" depart="672.00" from="35798517" to="-36795819" type="passenger"/>
    <trip id="225" depart="675.00" from="-24488219" to="-36795869#5" type="passenger"/>
    <trip id="226" depart="678.00" from="-36795867#4" to="-36796093#2" type="passenger"/>
    <trip id="227" depart="681.00" from="24488203#3" to="-35798483#4" type="passenger"/>
    <trip id="228" depart="684.00" from="-36784334#1" to="36783639#0" type="passenger"/>
    <trip id="229" depart="687.00" from="36784186" to="-195046706#1" type="passenger"/>
    <trip id="230" depart="690.00" from="-458692370#1" to="227818179#2" type="passenger"/>
    <trip id="231" depart="693.00" from="-5025495#4" to="-36783623#1" type="passenger"/>
    <trip id="232" depart="696.00" from="-5560118#3" to="37229661#0" type="passenger"/>
    <trip id="233" depart="699.00" from="320464907#0" to="36783650#0" type="passenger"/>
    <trip id="234" depart="702.00" from="36859053#0" to="36795834#0" type="passenger"/>
    <trip id="235" depart="705.00" from="-37237438#2" to="-123419541#1" type="passenger"/>
    <trip id="236" depart="708.00" from="-36861109#2" to="36795763#28" type="passenger"/>
    <trip id="237" depart="711.00" from="36859037#2" to="458692191#0" type="passenger"/>
    <trip id="238" depart="714.00" from="-525850666#1" to="36792197#5" type="passenger"/>
    <trip id="239" depart="717.00" from="25022512#0" to="340174247#0" type="passenger"/>
    <trip id="240" depart="720.00" from="-36784262#2" to="-36784182#1" type="passenger"/>
    <trip id="241" depart="723.00" from="1191384224#0" to="-1312645393#7" type="passenger"/>
    <trip id="242" depart="726.00" from="-36859048#1" to="36783540#0" type="passenger"/>
    <trip id="243" depart="729.00" from="-458457923#1" to="-35835635#1" type="passenger"/>
    <trip id="244" depart="732.00" from="1317807571#0" to="-35796844" type="passenger"/>
    <trip id="245" depart="735.00" from="35798472#0" to="-1311517187#3" type="passenger"/>
    <trip id="246" depart="738.00" from="-437198864#8" to="25465412#0" type="passenger"/>
    <trip id="247" depart="741.00" from="-1312645393#15" to="35835498" type="passenger"/>
    <trip id="248" depart="744.00" from="-35798471#1" to="1285857826#0" type="passenger"/>
    <trip id="249" depart="747.00" from="-144909967#6" to="-36886052" type="passenger"/>
    <trip id="250" depart="750.00" from="-36784210#2" to="-36796126#1" type="passenger"/>
    <trip id="251" depart="753.00" from="36795792#0" to="-36886052" type="passenger"/>
    <trip id="252" depart="756.00" from="36792199" to="36854988#0" type="passenger"/>
    <trip id="253" depart="759.00" from="-36795763#16" to="-24488258#4" type="passenger"/>
    <trip id="254" depart="762.00" from="-129705856#7" to="227817710#0" type="passenger"/>
    <trip id="255" depart="765.00" from="992310141" to="-36859030#1" type="passenger"/>
    <trip id="256" depart="768.00" from="35835600" to="36795919#0" type="passenger"/>
    <trip id="257" depart="771.00" from="35835628#0" to="36795766" type="passenger"/>
    <trip id="258" depart="774.00" from="448617606#0" to="-36783565#2" type="passenger"/>
    <trip id="259" depart="777.00" from="-129726366#1" to="-35835527#2" type="passenger"/>
    <trip id="260" depart="780.00" from="-35796893#1" to="36548449#8" type="passenger"/>
    <trip id="261" depart="783.00" from="265724837#0" to="-36783684#1" type="passenger"/>
    <trip id="262" depart="786.00" from="36783661#0" to="36795837#2" type="passenger"/>
    <trip id="263" depart="789.00" from="-35835700#1" to="35303740" type="passenger"/>
    <trip id="264" depart="792.00" from="36791856#0" to="-35303706#2" type="passenger"/>
    <trip id="265" depart="795.00" from="36796123#0" to="500279608#5" type="passenger"/>
    <trip id="266" depart="798.00" from="-33725328#2" to="-1302266958#1" type="passenger"/>
    <trip id="267" depart="801.00" from="-36796135#6" to="36783531#0" type="passenger"/>
    <trip id="268" depart="804.00" from="498864116" to="-43171304#10" type="passenger"/>
    <trip id="269" depart="807.00" from="36784235#0" to="-23799306#9" type="passenger"/>
    <trip id="270" depart="810.00" from="36783606#0" to="35798439#0" type="passenger"/>
    <trip id="271" depart="813.00" from="-320464907#18" to="36795867#0" type="passenger"/>
    <trip id="272" depart="816.00" from="36858955#0" to="33724722" type="passenger"/>
    <trip id="273" depart="819.00" from="-35403961#0" to="61108949#0" type="passenger"/>
    <trip id="274" depart="822.00" from="36795892" to="-36858952" type="passenger"/>
    <trip id="275" depart="825.00" from="-81799046#1" to="-36861153#8" type="passenger"/>
    <trip id="276" depart="828.00" from="1494337390" to="-36858794#2" type="passenger"/>
    <trip id="277" depart="831.00" from="36858951#0" to="36798622#0" type="passenger"/>
    <trip id="278" depart="834.00" from="-33635431#0" to="4934659#1" type="passenger"/>
    <trip id="279" depart="837.00" from="35835488" to="36805072#0" type="passenger"/>
    <trip id="280" depart="840.00" from="36784190#0" to="-801791244" type="passenger"/>
    <trip id="281" depart="843.00" from="36784353#18" to="5023342#1" type="passenger"/>
    <trip id="282" depart="846.00" from="-36795858#1" to="36796098#7" type="passenger"/>
    <trip id="283" depart="849.00" from="118889157#0" to="36784359" type="passenger"/>
    <trip id="284" depart="852.00" from="-36795847#6" to="36859057" type="passenger"/>
    <trip id="285" depart="855.00" from="36804005#0" to="-25373638#3" type="passenger"/>
    <trip id="286" depart="858.00" from="36886038#0" to="-36784328#1" type="passenger"/>
    <trip id="287" depart="861.00" from="1311517187#2" to="35303763#0" type="passenger"/>
    <trip id="288" depart="864.00" from="-37229937#2" to="-1312645393#4" type="passenger"/>
    <trip id="289" depart="867.00" from="36858956#0" to="-36548449#12" type="passenger"/>
    <trip id="290" depart="870.00" from="-36784214#1" to="36796016#0" type="passenger"/>
    <trip id="291" depart="873.00" from="-36859102#1" to="36886042#0" type="passenger"/>
    <trip id="292" depart="876.00" from="36783672" to="-36795832" type="passenger"/>
    <trip id="293" depart="879.00" from="-1266039231#4" to="44705953#0" type="passenger"/>
    <trip id="294" depart="882.00" from="-25465399#1" to="36784295#0" type="passenger"/>
    <trip id="295" depart="885.00" from="1392698562#0" to="36795792#2" type="passenger"/>
    <trip id="296" depart="888.00" from="1414589359#0" to="36795976" type="passenger"/>
    <trip id="297" depart="891.00" from="-26719684#1" to="-36784191#1" type="passenger"/>
    <trip id="298" depart="894.00" from="36783614#0" to="-36796001#1" type="passenger"/>
    <trip id="299" depart="897.00" from="306061601#0" to="1303899466" type="passenger"/>
</routes>
