<?xml version="1.0" encoding="UTF-8"?>

<!-- generated on 2026-06-23 18:05:34.843100 by Eclipse SUMO randomTrips.py v1_27_0+0000-e238ea04b71
<configuration>
    <net-file value="python/scenario/corridor.net.xml"/>
    <output-trip-file value="python/scenario/corridor.trips.xml"/>
    <route-file value="python/scenario/corridor.rou.xml"/>
    <vehicle-class value="passenger"/>
    <fringe-factor value="5"/>
    <min-distance value="300.0"/>
    <end value="900.0"/>
    <period value="3.0"/>
</configuration>
-->

<!-- generated on 2026-06-23T18:05:34.374668-05:00 by Eclipse SUMO duarouter 1.27.0
<duarouterConfiguration xmlns:xsi="http://www.w3.org/2001/XMLSchema-instance" xsi:noNamespaceSchemaLocation="http://sumo.dlr.de/xsd/duarouterConfiguration.xsd">

    <input>
        <net-file value="python/scenario/corridor.net.xml"/>
        <route-files value="python/scenario/corridor.trips.xml"/>
    </input>

    <output>
        <output-file value="python/scenario/corridor.rou.xml"/>
        <alternatives-output value="NUL"/>
    </output>

    <processing>
        <routing-threads value="8"/>
    </processing>

    <time>
        <begin value="0.0"/>
        <end value="900.0"/>
    </time>

    <report>
        <no-warnings value="true"/>
        <ignore-errors value="true"/>
        <no-step-log value="true"/>
    </report>

</duarouterConfiguration>
-->

<routes xmlns:xsi="http://www.w3.org/2001/XMLSchema-instance" xsi:noNamespaceSchemaLocation="http://sumo.dlr.de/xsd/routes_file.xsd">
    <vType id="passenger" vClass="passenger"/>
    <vehicle id="0" type="passenger" depart="0.00">
        <route edges="35835521#0 35835552#0 35835573#0 -1384498769#0 -1384498770 35796887#0 -35796885#2 -35796861#1 35796836 35796884#0 37229937#7 44705952 44705953#0 44705953#1 35835643#0 35835643#2 35835643#5 -35835635#1 35835636#0 129726925#14 44705944 1381876541 1381876542#0 1381032291#0 1381032292#0 1381084885#0 1381084886 1381084887 1381084888#0 44705945#0 474021762#0 474021760#0 35798452#0 35798449#0 35798565 35798460#0 -35798459 -1361137684#2 -37229617 37229613#0 37229607#0 37229627#0 37229602#0 1317849510 37229659#0 37229659#6 37229598#0 37229593#0 1317861094#0 37229661#0 37229695#0 37229701#0 37229700#0 42140001 1317806166 1317806165#0 445878559#0 445878559#5 123420334 42146498#0 36858786#0 -40789190#10 -40789190#8 1300970599#0 1300970599#3 -1302261845#1"/>
    </vehicle>
    <vehicle id="1" type="passenger" depart="3.00">
        <route edges="-36795883#2 -36796040 -36796084#2 -36795841#1 -36796109#0 -1264454442#1 36795858#0 1264509787#0 -36795763#29 -36795763#27 -36795763#25 -36795763#23 -36795763#20 -36795763#19 -36795763#16 -36795878#2 -1288863202#3 -36784238#3 -36784261 -36784316 -36784366 -36784211 -36784183#2 -36784226#1 -36784325#2 -43326402#1 -36784296#2 -36784191#1 36784204#0 -36784263 -36784362#1 36784199#0 -36784199#2"/>
    </vehicle>
    <vehicle id="2" type="passenger" depart="6.00">
        <route edges="36784360#0 36784280#0 1382966533#0 1382966530#0 433827565#0 1382749355 433827566 36787665#0 42140524#0 205717853 -36783654#4 -36783649 -36783612#1 -36783583#1 36783585 36783528#0"/>
    </vehicle>
    <vehicle id="3" type="passenger" depart="9.00">
        <route edges="36921403#0 377674258 377674259#0 35349680#0 50887292#0 1334846125#0 1420861808 1420861807#0 135953624#0 1467278916 36787103#0 36787103#3 36787101#0 36787100 36787099 205717851#0 36787091#0 -481952455 -1382749355 -433827565#1 -1382966530#3 -1382966533#1 -1382966532#1 -36784857#7 36784852#0 36784856#0 -23809601#12 -1382963881#2 -36784243#8 36784254#0 417884840#0 1353953506#0 941830568#0 5341174#0 1288863209 1288863210 1288863208#0 1288863207#0 1288863206#0 1288863205#0 1288863204 1288863203#0 1288863202#4 1288863201 1288863200 1288863199#0 36795828#0 -36795769#3 -36796090#3 -36798620#3 36798621#0 36798623#0 -36798253#3 36798561#0 36798557#0 -43172651#18 -43172651#6 -36803738#2 36803735#0 36803734#0 -5379201#1 -5379201#0 -768427592#5 36804005#0 36804006#0 -36804726#13 -36804726#10 1378338180 36804722#0 -36804810#5 -36804810#3 36804800#0 36804780#0 -25373638#8"/>
    </vehicle>
    <vehicle id="4" type="passenger" depart="12.00">
        <route edges="-5756811#5 -5756811#3 -5756811#2 1489280491#0 1483490008#0 1317821122#5 36804723#0 1378338179 36804726#11 36804003#0 36804004#0 36804007#0 660176957#0 5379201#1 36803736#0 36803733#0 36803738#0 43172651#0 43172651#7 36798558#0 36798562#0 36798253#0 36798622#0 36798624#0 36798620#0 36796090#0 36795769#0 -36795828#2 -1288863199#1 -1288863200 -1288863201 -1288863202#6 -1288863202#3 -1288863204 -1288863205#3 -1288863206#1 -1288863207#1 -1288863208#1 -1288863210 -1288863209 -5341174#3 941830569#0 -1353953506#3 -1390873493#1 -941830567 -1317846851 -1317846850"/>
    </vehicle>
    <vehicle id="5" type="passenger" depart="15.00">
        <route edges="-36784251#3 36784231#0 36784349#0 -36784210#2 36790143#1 36790143#2 1378317975 36787095#0 36787094#0 -1379275620 -50888397#3 1425742672 50888454#0 227817711#0 205718509 50888401 205718511#0 50888404 23799520#0 236765446#0 235236365#0 235236364 1441844724"/>
    </vehicle>
    <vehicle id="6" type="passenger" depart="18.00">
        <route edges="-1312645393#11 -89185301#4 -89185301#1 -36796105#2 -89185298#3 36796634#0 36796637#0 -36796135#6 -36796135#4 -36796135#1 -36795795#2 -36795832 -36795882#1 -36796013 -1442630335 -36795951 -36795812#1 -417884840#1 -461108535#2 -36784240#3 -36784346 -285904452 36784259#0 -285904451#1 -36784270 -36784278 -36784350 -36784275 -36784281#1 -36784268#1 -36784244#1 -36783533#1 -36783665#1 36783519#0 36783590 36783512 36783605 36783655#0 -36783672 -36783549#1 -36783561"/>
    </vehicle>
    <vehicle id="7" type="passenger" depart="21.00">
        <route edges="35835599 35835587 35835602 7955626#1 44705953#9 44705953#11 44705953#12 44705953#14 44705953#15 44705953#16 44705953#18 1288003013#0 1288003013#1 -437221764#8 437221830#0 -437221763#1 -439600159#14 -439600159#1 439600157#0 439600161#0 445927515 1379267345 1380237661 1380237662 36785024 1417004905 33725369#0 1381038065 1380158162#0 1380158162#1 1380158162#2 36784244#0 36784268#0 36784281#0 36784275 36784350 36784278 36784270 285904451#0 -36784259#1 285904452 36784346 36784240#0 36784254#0 417884840#0 -1390873493#1 -941830567 -1317846851 -1317846850 -1317836869 5284475#0 123420337#0 438348397 634177159 433238970#0 1262843445 940826333#0 940826335#0 1262503063#0 86822602 1262467334 37237436 549422014#0 549422014#0-AddedOffRampEdge 549422014#2 549422014#4 23799529 286782350#0 227817709 265724991 37236805#0 37236803#0 33542819#0 1417197705 23799280#0"/>
    </vehicle>
    <vehicle id="8" type="passenger" depart="24.00">
        <route edges="-36784261 -36784294#6 36784353#15 36784353#18 1288863201 1288863200 1288863199#0 1288863198#0 1288863197#0 1288863196 36797408#0 36797418#0 341498243#0 341498244#0 36797410#0 36797533#0 286784396#0 -286784394#1 286784395 1317893055#0 43224347 24488218 24488219 306061602#0 -306061603#4 306061601#0 37229599#0 37229593#0 1317861094#0 37229661#0 37229695#0 37229701#0 37229696 37229702#0 306060296#0"/>
    </vehicle>
    <vehicle id="9" type="passenger" depart="27.00">
        <route edges="36796062#0 -36795792#3 36796004#0 -36795936#5 -36795980#2 36795953#0 36796090#0 36795769#0 -36795828#2 -1288863199#1 -1288863200 -1288863201 -1288863202#6 -1288863202#3 -1288863204 -1288863205#3 36794903#0 36794903#3 1392698562#0 -123420834#1"/>
    </vehicle>
    <vehicle id="10" type="passenger" depart="30.00">
        <route edges="36796044#0 -36796044#2 36796118#0 36795868#0 36796103#0 36798562#0 36798253#0 36798622#0 36798624#0 36798620#0 36798620#4 36797413#0 36797400#0 448617603#0 448617604#0 448617605#0 36797497#0 36797497#7 43307633#0 43307646#0 43307631#0 43307631#2 43307631#6 439600158#1 33414856#0 439600159#0 439600159#2 437221763#0 437221829#0 437221764#0 -320608752#1 -36789581#1 -444618382 -320607700#1 -1382540968 -320607699#1 -36783693#1 -1263661531#1 -1263661530#1 -36789580 -1263661528#1 -36783521#2 -36783630#2 36783557#0 -36783666#2 36783666#0"/>
    </vehicle>
    <vehicle id="11" type="passenger" depart="33.00">
        <route edges="-36859102#1 36859102#0 36859106#2 36859106#3 36859106#4 5023342#9 660176957#0 5379201#1 36803736#0 36803733#0 36803738#0 43172651#0 43172651#7 36798558#0 36798562#0 36798253#0 36798622#0 36798624#0 36798620#0 36798620#4 36797413#0 36797400#0 448617603#0 448617604#0 448617605#0 36797497#0 36797497#7 43307633#0 43307646#0 43307631#0 43307631#2 43307631#6 439600158#1 33414856#0 439600159#0 439600159#2 437221763#0 437221829#0 437221764#0 437221764#9 437221764#11 507321552 507321554#0 33635429#0 33635429#2 890834840#0 33635430#0 890834839#0 35348769#0 39206426#0 -1379293508#2 -796653126#2 796653128#0 796653123#0 -1384307050#2 -1384307051#1 -1384498769#5 -1384498769#0 -1384498770 -232196664#7 -35835522#2 -35835542"/>
    </vehicle>
    <vehicle id="12" type="passenger" depart="36.00">
        <route edges="4935184#0 -36792208#1 -129726925#1 -129726925#0 129725698#0 129725698#3 439600163#0 439600161#0 445927515 1379267345 1380237661 1380237662 36785024 1417004905 33725369#0 1381038065 1380158162#0 1380158162#1 1380158162#2 36784244#0 36784268#0 36784281#0 36784275 36784350 36784278 36784270 285904451#0 -36784259#1 285904452 36784346 36784240#0 36784254#0 417884840#0 36795812#0 36795951 1442630335 36796013 36795882#0 36795832 36795795#0 36796135#0 36796135#2 36796135#5 -36796637#0 1382210282 36796633#0 36796635#0 -43174075#1 -1267142219 -1267142218#1 -1267142217#1 -1267142216 -36861616#2 -36861610 -36861608#1 -1267103200 36861695#0 36861693#0 -37403801#2 -1264417465 -1264417464 -1264417462#2 -377675436#1 -445437309 -35800146#1 -445437308#1 -36854991#3 -36854991#1 36854990#0 36854987#0 -226442552 -36855333#4 -36855333#2"/>
    </vehicle>
    <vehicle id="13" type="passenger" depart="39.00">
        <route edges="-26296427#1 4934658 205717610#0 205717609#0 -1382966530#3 -1382966533#1 -1382966532#1 -36784857#7 36784852#0 36784347#0 -1288872294#1 -1288872291#5 -1288872291#4 -1288872291#3 -1288872291#2 -1288872293#1 -1288872292#1 -43326402#14 -43326402#13 -43326402#11 -43326402#3 -43326402#1 36784353#0 1301742342#0 -25791247#1 -25791247#0"/>
    </vehicle>
    <vehicle id="14" type="passenger" depart="42.00">
        <route edges="36858940#1 -1301991597 -36858952 -36858946#1 -36858949#3 22486648#3 22486648#7 1301989568#0 1301989568#2 -36859033#5 1490021005#0 445892458#0 445892457#1 445892457#4 445892457#7 36804004#0 36804007#0 660176957#0 5379201#1 36803736#0 36803733#0 36803738#0 43172651#0 43172651#7 36798558#0 36798562#0 36798253#0 36798622#0 36798624#0 36798620#0 -36795953#2 -36796016#5 -36796049#5 36797406#0 1014045225#0 341498245#0"/>
    </vehicle>
    <vehicle id="15" type="passenger" depart="45.00">
        <route edges="36796053#0 -36795909#1 -36795938#2 -36795907#4 -36795907#1 -36795870#2 -36795975#1 -36795856#3 -36795968#3 -36795968#0 36796023#0 -36795955#1 -36796131 -36796114 -36795781 -1264509788#1 36795858#0 1264509787#0 -36795763#29 -36795763#27 -36795763#25 -36795763#23 -36795763#20 -36795763#19 -36795763#16 -36795878#2 1288863202#4 -36784353#20 36784353#18"/>
    </vehicle>
    <vehicle id="16" type="passenger" depart="48.00">
        <route edges="-37229660#1 -417876562#4 37229594#0 1317840801#0 37229589#0 -306061601#1 306061603#0 -306061602#2 -24488219 24488217#0 24488217#1 -43224348 -1317893055#1 -43224345#2 -24488213#10 -24488213#8 -24488213#5 -24488213#3 24488213#3"/>
    </vehicle>
    <vehicle id="17" type="passenger" depart="51.00">
        <route edges="36803733#0 36803738#0 43172651#0 43172651#7 36798558#0 36798562#0 36798253#0 36798622#0 36798624#0 36798620#0 36796090#0 36795769#0 -36795828#2 -1288863199#1 -1288863200 -1288863201 -1288863202#6 -1288863202#3 -1288863204 -1288863205#3 -1288863206#1 -1288863207#1 -1288863208#1 -1288863210 -1288863209 -5341174#3 941830569#0 -1353953506#3 -417884840#1 -461108535#2 461108536#0 1382963881#0 23809601#0 36784855#0 36784213#0 36784858#0 27121483#0 27121483#2 374196659#1 -354413104#1 354413103 50887469#0 225754961#0 -41841507#4 354413104#0"/>
    </vehicle>
    <vehicle id="18" type="passenger" depart="54.00">
        <route edges="36859219#2 -36859219#0 -36859238 -36859235#1 -632741895#1 -1430894769#1 -1326385906#1 -1382910833 -1382910834 -1326385905#1 36859315#0 44350803#0 1278988514 36804723#0 1378338179 36804726#11 36804003#0 36804004#0 36804007#0 660176957#0 5379201#1 36803736#0 36803733#0 36803738#0 43172651#0 43172651#7 36798558#0 36798562#0 36798253#0 36798622#0 36798624#0 36798620#0 36798620#4 36797413#0 36797400#0 448617603#0 448617604#0 448617605#0 36797497#0 36797497#7 43307633#0 43307648#0 -43329402#1 -1499906717 -27944957#5 27898844#0"/>
    </vehicle>
    <vehicle id="19" type="passenger" depart="57.00">
        <route edges="36783684#0 -36783684#1 -36783596#1 -36783614#1 -36783531#2 36783515#0 36783691#0 36783690#0 320607699#0 1382540968 320607700#0 444618382 36789581#0 320608752#0 -437221764#8 437221830#0 -437221763#1 -439600159#14 -439600159#1 439600157#0 24547748#0 -439600156#2 -43307631#5 -43307631#1 43307641#0 43307638#0 -36797497#12 -36797497#6 448617606#0 36797532#0 -448617603#2 36797402#0 36797403#0 -36798620#7 -36798620#3 36798621#0 36798623#0 -36798253#3 36798561#0 36798557#0 -43172651#18 -43172651#6 -36803738#2 36803735#0 36803734#0 -5379201#1 -5379201#0 -768427592#5 36804005#0 36804006#0 -36804726#13 -36804726#10 1378338180 36804722#0 -36804810#5 -36804810#3 36804800#0 36804780#0 -25373638#8 -25373638#3 -1414589360#1 -1414589359#3"/>
    </vehicle>
    <vehicle id="20" type="passenger" depart="60.00">
        <route edges="-36784314#3 -36784295#1 36784270 285904451#0 -36784259#1 285904452 36784346 36784240#0 36784254#0 417884840#0 36795812#0 36795951 1442630335 36796013 36795882#0 36795832 -128944340#1 -36796037#13 -36796037#7 -36796037#5 -36796037#4 36796021#0 36795847#0 36795847#4 36795847#7 36795847#12 36795847#15 36795847#17 -36795886#1"/>
    </vehicle>
    <vehicle id="21" type="passenger" depart="63.00">
        <route edges="-25022809#12 -50887299#13 -50887299#2 -1382905004 1382905003 50887296#0 35349680#0 50887292#0 1334846125#0 1420861808 1420861807#0 135953624#0 1467278916 36787103#0 36787103#3 36787101#0 36787100 36787099 205717851#0 36787098#0 -1378317975 -36790143#2 -36790143#1 -36790143#0 -1380158163#1 -1380158162#3 -1380158162#1 -1380158162#0 -1381038065 36784352#0 36784308#0 -128944702#1 -36784249 -36784208 -36784283#2 -36784228#1 -36784263"/>
    </vehicle>
    <vehicle id="22" type="passenger" depart="66.00">
        <route edges="-31876704#3 36921157#0 313908767 36921159 135953403#0 99149311 4934513#0 4071682#1-AddedOnRampEdge 4071682#1 41841477 223697761-AddedOnRampEdge 223697761 135952897 166541523 5337081 8162190 8162190-AddedOffRampEdge 8162196#0 549430885 416992197#0 549422013#0 -1262467334 -433239618#1 -1262503063#1 940826336#0 940826334#0 -1262843445 -433238970#2 -37237438#2 -438348397 37237437#0 123420336#0 1317836869 1317846850 1317846851 941830567 1353953505 36795812#0 36795951 1442630335 36796013 36795882#0 36795832 -128944340#1 -36796037#13 -36796037#7 -36796037#5 -36796037#4 -36796037#3 -36796037#1 -36796018 -1264509787#1 -36795858#1 1264509788#0 36795781 36796114 36796131 36795955#0 36795982#0 -36795837#4"/>
    </vehicle>
    <vehicle id="23" type="passenger" depart="69.00">
        <route edges="35835488 35835489#0 43224345#0 -43224676 286784394#0 -286784396#1 -36797533#4 36797417#0 36796049#1 36796016#0 36795953#0 -36798620#3 36798621#0 36798623#0 -36798253#3 36798561#0 36798557#0 -43172651#18 -43172651#6 -36803738#2 36803735#0 36803734#0 -5379201#1 -5379201#0 -768427592#5 36804005#0 36804006#0 -36804726#13 -36804726#10 1378338180 43248793#0 36859223#0 -36859245#1"/>
    </vehicle>
    <vehicle id="24" type="passenger" depart="72.00">
        <route edges="-36886075#2 -36886057 36886064#0 -36921184#2 -36886086#1 -36886061#1 -36886072#2 36921168#0 -1380238932#1 -214372068 -214372067 -36921161#1 36921155#0 36921157#0 313908767 36921159 135953403#0 99149311 23799516 4934476 4934476-AddedOffRampEdge 27121806#1 205718510 35800155#0 227817712#0 50888397#0 1379275620 36787096#0 42140524#0 205717853 205717852 205717854#0 205717854#1 36787107#0 195058446 445946531 36787108#1 291406210#0 36787305#0 36787307#0 36787307#5 1263661528#0 36789580 1263661530#0 1263661531#0 1263661529#0 -36783690#1 -36783691#2 -36783515#2 -36783621#1 -36783638#1"/>
    </vehicle>
    <vehicle id="25" type="passenger" depart="75.00">
        <route edges="-36795843#2 36795962#4 36795962#6 36795861#0 36795789#0 -36795955#1 -36796131 -36796114 -36795781 -1264509788#1 36795858#0 1264509787#0 -36795763#29 -36795763#27 -36795763#25 -36795763#23 -36795763#20 -36795763#19 -36795763#16 -36795878#2 1288863202#4 1288863201 1288863200 1288863199#0 -1335851229#1 -36784288#2 -36784302#8 36797497#7 43307633#0 43307646#0 43307631#0 43307631#2 43307631#6 439600158#1 33414856#0 439600159#0 439600159#2 437221763#0 437221829#0 437221764#0 437221764#9 437221764#11"/>
    </vehicle>
    <vehicle id="26" type="passenger" depart="78.00">
        <route edges="35835588#0 1500794434#0 35835600 35835594 35835592#0 -44705953#5 35835643#0 35835643#2 35835643#5 -35835635#1 35835636#0 129726925#14 44705944 1381876541 1381876542#0 1381032291#0 1381032292#0 1381084885#0 1381084886 1381084887 1381084888#0 44705945#0 474021762#0 474021760#0 35798452#0 35798449#0 35798565 35798460#0 -35798459 -1361137684#2 -37229617 37229613#0 37229607#0 37229627#0 37229602#0 1317849510 37229659#0 37229659#6 37229598#0 37229593#0 1317861094#0 37229661#0 37229695#0 37229701#0 37229700#0 42140001 1317806166 1317806165#0 445878559#0 445878559#5 123420334 222174770#0 5023684#0 5023687#0 5023687#1 5023687#4 40414350#0 5023698#0 25431314#0 35303755"/>
    </vehicle>
    <vehicle id="27" type="passenger" depart="81.00">
        <route edges="-35836134#1 35836134#1 35836134#2 35836134#3 36791861 36791859#0 44705953#18 1288003013#0 1288003013#1 -437221764#8 437221830#0 -437221763#1 -439600159#14 -439600159#1 439600157#0 24547748#0 -439600156#2 -43307631#5 -43307631#1 43307641#0 43307639#0 43307629#0 43326402#0 36784353#0"/>
    </vehicle>
    <vehicle id="28" type="passenger" depart="84.00">
        <route edges="-35835663 -35835536#1 37229937#3 37229937#5 37229937#6 37229937#7 44705952 44705953#0 44705953#1 44705953#4 44705953#6 44705953#7 44705953#9 44705953#11 44705953#12 44705953#14 44705953#15 44705953#16 44705953#18 1288003013#0 1288003013#1 -320608752#1 -36789581#1 -444618382 -320607700#1 -1382540968 -320607699#1 -36783693#1 -1263661531#1 -1263661530#1 -36789580 -1263661528#1 -36787307#9 -36787307#4 36787306#0 36787103#0 36787103#3 36787101#0 36787100 36787099 205717851#0 36787094#0 -1379275620 -50888397#3 1425742672 50888454#0 227817711#0 205718509 50888401 205718511#0 50888404 236765445 135953402 23799514#0 36921160 36921158 313908769#0 36921156#0 36921161#0 214372067 214372068 1380238932#0 36921170#0 36886072#0 36886061#0 36886086#0 36886074 -36886064#4 36886057 -36886057"/>
    </vehicle>
    <vehicle id="29" type="passenger" depart="87.00">
        <route edges="8162192#0 227817709 265724991 37236805#0 -37236805#1 37236804 265724837#0 286782351 286782349 286782349-AddedOffRampEdge 286782348 455881114#0 549430885 416992197#0 549422013#0 -1262467334 -433239618#1 -1262503063#1 940826336#0 940826334#0 -1262843445 -433238970#2 -37237438#2 -438348397 37237437#0 123420336#0 1317836869 1317846850 1317846851 941830567 1353953505 1353953506#0 941830568#0 5341174#0 1288863209 1288863210 1288863208#0 1288863207#0 1288863206#0 1288863205#0 1288863204 1288863203#0 1288863202#4 1288863201 1288863200 1288863199#0 1288863198#0 1288863197#0 1288863196 36797408#0 36797418#0 341498243#0 341498244#0 36797410#0 36797533#0 286784396#0 -286784394#1 286784395 -43224345#2 -35835489#2 -35835488 -35835493#1 -35835492#1 35835481#0"/>
    </vehicle>
    <vehicle id="30" type="passenger" depart="90.00">
        <route edges="25465461#1 25465461#0 -36859056#1 -25465436#5 1483490008#0 1317821122#5 36804723#0 1378338179 36804726#11 36804003#0 36804004#0 36804007#0 660176957#0 5379201#1 36803736#0 36803733#0 36803738#0 43172651#0 43172651#7 36798558#0 36798562#0 36798253#0 36798622#0 36798624#0 36798620#0 36798620#4 36797413#0 36797400#0 448617603#0 448617604#0 448617605#0 36797497#0 36797497#7 43307633#0 43307646#0 43307631#0 43307631#2 43307631#6 439600165#0 1379267345 1380237661 1380237662 36785024 1417004905 33725369#0 1381038065 1380158162#0 1380158162#1 -36783589#1 36783586#0"/>
    </vehicle>
    <vehicle id="31" type="passenger" depart="93.00">
        <route edges="36858793#0 -36858793#1 35403961#0 1303899466 36858794#0 1302266962#0 1302266980#2 1302266980#3 1073334800#0 1491089984 1073334801#0 1490021005#0 445892458#0 445892457#1 445892457#4 445892457#7 36804004#0 36804007#0 660176957#0 5379201#1 36803736#0 36795848#0 36795915#0 36795927#0 36795872 36795819 36796035 36795859#0 1446840567#0 -36795968#3 -36795968#0 36796023#0 -36795955#1 -36796131 -36796114 -36795781 -1264509788#1 36795858#0 1264509787#0 36796018 36796037#0 36796037#2 36796037#4 36796037#5 36796037#6 36796037#8 128944340#0 -36795832 -36795882#1 36795882#0"/>
    </vehicle>
    <vehicle id="32" type="passenger" depart="96.00">
        <route edges="-36784316 -36784366 -36784211 -36784183#2 -36784226#1 -36784325#2 -43326402#1 -43326402#0 -43307629#1 43307635#0 43307648#0 -43329402#1 -1499906717 -27944957#5 -27944957#3 -27944957#0 -27944956 -33724739#1 -33724739#0 -43326406#10 -35835680#1 -35835692 -37229620 -1348059169"/>
    </vehicle>
    <vehicle id="33" type="passenger" depart="99.00">
        <route edges="-36797533#4 36797417#0 36796049#1 36796016#0 36795953#0 36796090#0 36795763#0 36795763#2 36795763#4 36795763#6 36795763#8 36795763#11 36795763#12 36795763#14 36795763#15 36795763#17 36795763#20 36795763#21 36795763#24 36795763#26 36795763#28 -1264509787#1 -36795858#1 1264509788#0 36795781 36796114 36796131 36795955#0 -36796023#1 36795968#0 36795968#1 36795856#0 36795856#5 36795782#0 -36795782#1"/>
    </vehicle>
    <vehicle id="34" type="passenger" depart="102.00">
        <route edges="-36784205 -36784334#1 -36784293 -36784219#1 -36784295#1 -36784278 -36784350 -36784275 -36784281#1 -36784268#1 -36784244#1 -36783533#1 -36783665#1 36783519#0 36783590 -36783606#2 -36783563#1 36783520#0 36783644#0 1263661531#0 1263661529#0 320607699#0 1382540968 320607700#0 444618382"/>
    </vehicle>
    <vehicle id="35" type="passenger" depart="105.00">
        <route edges="36861260#0 -36861260#4 -36861698#1 -1264808027#3 -1264808027#1 36861694#0 1267103200 36861608#0 36861610 36861616#0 1267142216 1267142217#0 -36796089#2 -36795761 -36795777 -36795773#2 -36795886#1 -36796053#1"/>
    </vehicle>
    <vehicle id="36" type="passenger" depart="108.00">
        <route edges="35835650 36792204 36792197#1 36792200#0 36792206 33725328#0 129725698#3 439600163#0 439600161#0 445927515 1379267345 1380237661 1380237662 36785024 1417004905 33725369#0 1381038065 1380158162#0 1380158162#1 1380158162#2 36784244#0 36784268#0 36784281#0 36784275 36784350 36784278 36784270 285904451#0 -36784259#1 285904452 36784346 36784240#0 36784254#0 417884840#0 36795812#0 36795951 1442630335 36796013 36795882#0 36795832 36795795#0 36796135#0 36796135#2 36796135#5 -36796637#0 1382210282 36796633#0 36796635#0 -43174075#1 -1267142219 -1267142218#1 -1267142217#1 -1267142216 -36861616#2 -36861610 -36861608#1 -1267103200 36861695#0 -42140835#4 -42140834#1"/>
    </vehicle>
    <vehicle id="37" type="passenger" depart="111.00">
        <route edges="39210630#0 -448500603#13 -448500603#6 44705947#0 835375613#0 -44705946 36787090 36787103#0 36787103#3 36787101#0 36787100 36787099 205717851#0 36787091#0 -481952455 -1382749355 -433827565#1 -1382966530#3 -1382966533#1 -1382966532#1 -36784857#7 36784852#0 36784856#0 -23809601#12 -1382963881#2 -1382963880#1 -1429159874#3 23809606#0 123420332#1 -1267316415#1 -1267316416 -1352301891#2 -1267316417#1 -1267316418#1 -36796637#3 -36796637#0 1382210282 36796633#0 36796635#0 -43174075#1 -1267142219 -1267142218#1 -1267142217#1 -1267142216 -36861616#2 -36861610 -36861608#1 -1267103200 36861695#0 36861694#0 1267103200 36861608#0 36861610 36861616#0 1267142216 1267142217#0"/>
    </vehicle>
    <vehicle id="38" type="passenger" depart="114.00">
        <route edges="-36795834#8 36795834#4 43172651#0 43172651#7 36798558#0 36798562#0 36798253#0 36798622#0 36798624#0 36798620#0 36796090#0 36795769#0 -36795828#2 -1335851229#1 -36784288#2 36784216#0 36784348#0 -36784353#6 -36784353#2 -36784353#1"/>
    </vehicle>
    <vehicle id="39" type="passenger" depart="117.00">
        <route edges="25542530#0 -36784285#1 -36784214#1 -36784356 -36784359 -36784256#7 36784240#0 36784254#0 417884840#0 1353953506#0 941830568#0 5341174#0 1288863209 1288863210 1288863208#0 1288863207#0 1288863206#0 1288863205#0 1288863204 1288863203#0 1288863202#4 1288863201 1288863200 1288863199#0 36795828#0 -36795769#3 -36796090#3 -36798620#3 36798621#0 36798623#0 -36798253#3 36798561#0 36795990#0 -36795868#3 -36795759#1"/>
    </vehicle>
    <vehicle id="40" type="passenger" depart="120.00">
        <route edges="320607699#0 1382540968 320607700#0 444618382 -444618382 -320607700#1 -1382540968 -320607699#1 -36783693#1 -1263661531#1 -1263661530#1 -36789580 -1263661528#1 -36787307#9 -36787307#4 36787306#0 36787103#0 36787103#3 36787101#0 36787100 36787099 205717851#0 36787094#0 -1379275620 -50888397#3 1425742672 50888454#0 227817711#0 205718509 50888401 205718511#0 50888404 4934476 4934476-AddedOffRampEdge 37192025#0 37192025#0-AddedOffRampEdge 37192025#2"/>
    </vehicle>
    <vehicle id="41" type="passenger" depart="123.00">
        <route edges="-445715249#1 445715249#0 876360321 352702459#0 1264417462#0 1264417464 1264417465 37403801#0 36861696#0 36861694#0 1267103200 36861608#0 36861610 36861616#0 1267142216 1267142217#0 1267142218#0 1267142219 43174075#0 36796636#0 36796634#0 36796637#0 -36796135#6 -36796135#4 -36796135#1 -36795795#2 -36795832 -36795882#1 -36796013 -1442630335 -36795951 -36795812#1 -417884840#1 -461108535#2 -36784240#3 -36784346 -285904452 36784259#0 -1288872292#1 -43326402#14 -43326402#13 -43326402#11 -36784197#2 -36784277#2 -36784323#1 -36784312 36784283#0 -36784182#1"/>
    </vehicle>
    <vehicle id="42" type="passenger" depart="126.00">
        <route edges="940826335#0 940826336#0 940826334#0 -1262843445 -433238970#2 -37237438#2 -438348397 37237437#0 123420336#0 1317836869 1317846850 1317846851 941830567 1353953505 1353953506#0 941830568#0 5341174#0 1288863209 1288863210 1288863208#0 1288863207#0 1288863206#0 1288863205#0 1288863204 1288863203#0 1288863202#4 1288863201 1288863200 1288863199#0 36795828#0 -36795769#3 -36796090#3 -36798620#3 36798621#0 36798623#0 -36798253#3 36798561#0 36798557#0 -43172651#18 -43172651#6 -36803738#2 36803735#0 36803734#0 -5379201#1 -5379201#0 -768427592#5 36804005#0 -445892457#14 -445892457#6 -445892457#3 -445892458#1 -1490021005#2 36859033#0 5756811#0 -36859029#1 -1489280484 1489280484"/>
    </vehicle>
    <vehicle id="43" type="passenger" depart="129.00">
        <route edges="-25542534#0 -25542534#1 36784341#0 36784349#0 -36784210#2 36790143#1 36790143#2 1378317975 36787095#0 36787094#0 -1379275620 -50888397#3 1425742672 50888454#0 227817711#0 205718509 50888401 205718511#0 50888404 236765445 4934528#0 135952898-AddedOnRampEdge 135952898 41841475 223697761-AddedOnRampEdge 223697761 135952897 166541523 5337081 8162190 8162190-AddedOffRampEdge 8162196#0 549430885 416992197#0 37237441#0 37237445#0 -1426805811#2"/>
    </vehicle>
    <vehicle id="44" type="passenger" depart="132.00">
        <route edges="-35303707#1 -35303763#3 35303763#0 35303707#0 35798648#0 445878558#0 495050538 37229699#0 37229696 37229702#0 306060296#0 37229697#0 -37229661#3 -1317861094#1 37229596#0 37229592#0 -37229659#9 -37229659#5 -1317849511#2 37229604#0 -37229627#1 37229605#0 439404033#0 37229616 37229628 37229629 37229630 37229617 1361137684#0 -35798455#1 -35798457 -22486528#11 -22486528#9 -22486528#6 -22486528#5 -22486528#4 35798440#0"/>
    </vehicle>
    <vehicle id="45" type="passenger" depart="135.00">
        <route edges="36795962#12 36795826#0 36795826#2 -36796114 -36795781 -1264509788#1 -36795776#1 -36795945 -36795973#1 -36795988#6 36795820#0 36795990#0 -36795868#3 -36796118#1 -36796071#1 -1264441187#1 1264441188#0 1264441189 1264441190 36798563#0 43172205 458457923#0 43171759#0 43171751#0 445878560#0 -35798648#1 -35303707#1 -35303763#3 -500279618#3 -500279618#1 -500279618#0"/>
    </vehicle>
    <vehicle id="46" type="passenger" depart="138.00">
        <route edges="-214372067 -36921161#1 36921155#0 36921156#0 36921161#0 214372067 214372068 1380238932#0 36921170#0 36886072#0 36886061#0 36886086#0 36886074 -36886064#4 36886057 36886075#0 36886089 36886080#0 -36886099#3"/>
    </vehicle>
    <vehicle id="47" type="passenger" depart="141.00">
        <route edges="5284475#0 123420336#0 1317836869 1317846850 1317846851 941830567 1353953505 1353953506#0 941830568#0 5341174#0 1288863209 1288863210 1288863208#0 1288863207#0 1288863206#0 1288863205#0 1288863204 1288863203#0 1288863202#4 1288863201 1288863200 1288863199#0 36795828#0 -36795769#3 -36796090#3 -36798620#3 36798621#0 36798623#0 -36798253#3 36798561#0 36798557#0 -43172651#18 -43172651#6 -36803738#2 36803735#0 36803734#0 -5379201#1 -5379201#0 -768427592#5 36804005#0 36859229#0 36859229#8 36859236#0 36859236#3"/>
    </vehicle>
    <vehicle id="48" type="passenger" depart="144.00">