<?xml version="1.0" encoding="UTF-8"?>

<!-- generated on 2026-06-30 12:29:48.238818 by Eclipse SUMO randomTrips.py v1_27_0+0000-e238ea04b71
<configuration>
    <net-file value="python/scenario/corridor.net.xml"/>
    <output-trip-file value="python/scenario/corridor.ped.trips.xml"/>
    <route-file value="python/scenario/corridor.ped.rou.xml"/>
    <persons value="True"/>
    <prefix value="ped"/>
    <min-distance value="50.0"/>
    <max-distance value="1500.0"/>
    <end value="900.0"/>
    <period value="7.0"/>
</configuration>
-->

<routes xmlns:xsi="http://www.w3.org/2001/XMLSchema-instance" xsi:noNamespaceSchemaLocation="http://sumo.dlr.de/xsd/routes_file.xsd">
    <person id="ped0" depart="0.00">
        <walk from="36858794#0" to="35303709#0"/>
    </person>
    <person id="ped1" depart="7.00">
        <walk from="225754958#0" to="50887467#0"/>
    </person>
    <person id="ped2" depart="14.00">
        <walk from="-36796069#2" to="-36795790#5"/>
    </person>
    <person id="ped3" depart="21.00">
        <walk from="-36783661#1" to="437221829#0"/>
    </person>
    <person id="ped4" depart="28.00">
        <walk from="89185046#0" to="205718509"/>
    </person>
    <person id="ped5" depart="35.00">
        <walk from="-1073334801#3" to="-36796123#3"/>
    </person>
    <person id="ped6" depart="42.00">
        <walk from="-25022512#0" to="135953624#0"/>
    </person>
    <person id="ped7" depart="49.00">
        <walk from="890834838#0" to="35835602"/>
    </person>
    <person id="ped8" depart="56.00">
        <walk from="-36784256#5" to="-36784197#2"/>
    </person>
    <person id="ped9" depart="63.00">
        <walk from="36784321#0" to="36783510#0"/>
    </person>
    <person id="ped10" depart="70.00">
        <walk from="-36795777" to="36795883#6"/>
    </person>
    <person id="ped11" depart="77.00">
        <walk from="-1484296347#4" to="298209255#1"/>
    </person>
    <person id="ped12" depart="84.00">
        <walk from="940826336#0" to="89185046#0"/>
    </person>
    <person id="ped13" depart="91.00">
        <walk from="36861136" to="36861118#0"/>
    </person>
    <person id="ped14" depart="98.00">
        <walk from="36796101#2" to="-36795959#2"/>
    </person>
    <person id="ped15" depart="105.00">
        <walk from="36784247#0" to="-36783623#1"/>
    </person>
    <person id="ped16" depart="112.00">
        <walk from="36858790#0" to="-25431645#1"/>
    </person>
    <person id="ped17" depart="119.00">
        <walk from="36795988#0" to="36859103#0"/>
    </person>
    <person id="ped18" depart="126.00">
        <walk from="36796056#0" to="-36795789#1"/>
    </person>
    <person id="ped19" depart="133.00">
        <walk from="1267316418#0" to="-36795977#1"/>
    </person>
    <person id="ped20" depart="140.00">
        <walk from="-36790143#2" to="36784198"/>
    </person>
    <person id="ped21" depart="147.00">
        <walk from="-36796049#5" to="36858842#0"/>
    </person>
    <person id="ped22" depart="154.00">
        <walk from="-1073334800#2" to="-36795875#4"/>
    </person>
    <person id="ped23" depart="161.00">
        <walk from="-36783562#3" to="36783641#0"/>
    </person>
    <person id="ped24" depart="168.00">
        <walk from="35835651" to="-1246823329#2"/>
    </person>
    <person id="ped25" depart="175.00">
        <walk from="36798562#0" to="24488203#3"/>
    </person>
    <person id="ped26" depart="182.00">
        <walk from="-36795803#3" to="-36796098#4"/>
    </person>
    <person id="ped27" depart="189.00">
        <walk from="36784187#0" to="-1495973691#2"/>
    </person>
    <person id="ped28" depart="196.00">
        <walk from="-437221764#10" to="23747638"/>
    </person>
    <person id="ped29" depart="203.00">
        <walk from="-44705953#19" to="-36783638#1"/>
    </person>
    <person id="ped30" depart="210.00">
        <walk from="-36784199#2" to="-36784194#3"/>
    </person>
    <person id="ped31" depart="217.00">
        <walk from="-39871989#2" to="25465461#1"/>
    </person>
    <person id="ped32" depart="224.00">
        <walk from="-1288872292#1" to="227817712#0"/>
    </person>
    <person id="ped33" depart="231.00">
        <walk from="35835632#0" to="36792197#1"/>
    </person>
    <person id="ped34" depart="238.00">
        <walk from="-35835657" to="35303745"/>
    </person>
    <person id="ped35" depart="245.00">
        <walk from="448617604#0" to="-41363958#1"/>
    </person>
    <person id="ped36" depart="252.00">
        <walk from="-36783514" to="-36783686#5"/>
    </person>
    <person id="ped37" depart="259.00">
        <walk from="50888440#0" to="252976668#0"/>
    </person>
    <person id="ped38" depart="266.00">
        <walk from="36796126#0" to="-43174075#1"/>
    </person>
    <person id="ped39" depart="273.00">
        <walk from="-22486540#1" to="35798480"/>
    </person>
    <person id="ped40" depart="280.00">
        <walk from="1073334800#0" to="36859046#0"/>
    </person>
    <person id="ped41" depart="287.00">
        <walk from="36784371#9" to="439600161#0"/>
    </person>
    <person id="ped42" depart="294.00">
        <walk from="-36783643#1" to="-36783661#1"/>
    </person>
    <person id="ped43" depart="301.00">
        <walk from="-36784262#2" to="36784190#0"/>
    </person>
    <person id="ped44" depart="308.00">
        <walk from="36783593#0" to="39206806"/>
    </person>
    <person id="ped45" depart="315.00">
        <walk from="35835690#0" to="43224345#0"/>
    </person>
    <person id="ped46" depart="322.00">
        <walk from="36783603#0" to="36783662#0"/>
    </person>
    <person id="ped47" depart="329.00">
        <walk from="-36796109#0" to="-36784371#11"/>
    </person>
    <person id="ped48" depart="336.00">
        <walk from="-25431573#3" to="4932961#0"/>
    </person>
    <person id="ped49" depart="343.00">
        <walk from="-1381032292#3" to="36792202"/>
    </person>
    <person id="ped50" depart="350.00">
        <walk from="129726925#6" to="35835628#0"/>
    </person>
    <person id="ped51" depart="357.00">
        <walk from="1264441188#0" to="-36796056#2"/>
    </person>
    <person id="ped52" depart="364.00">
        <walk from="23747638" to="-44705944"/>
    </person>
    <person id="ped53" depart="371.00">
        <walk from="36792203#0" to="35798441#0"/>
    </person>
    <person id="ped54" depart="378.00">
        <walk from="-36795817#2" to="36804005#0"/>
    </person>
    <person id="ped55" depart="385.00">
        <walk from="1446840567#0" to="36796121#1"/>
    </person>
    <person id="ped56" depart="392.00">
        <walk from="-36795861#1" to="-36795952#1"/>
    </person>
    <person id="ped57" depart="399.00">
        <walk from="-36783533#1" to="36783649"/>
    </person>
    <person id="ped58" depart="406.00">
        <walk from="36858943#0" to="36859043#0"/>
    </person>
    <person id="ped59" depart="413.00">
        <walk from="-36795917#2" to="-36861610"/>
    </person>
    <person id="ped60" depart="420.00">
        <walk from="-36789580" to="-36791852"/>
    </person>
    <person id="ped61" depart="427.00">
        <walk from="-1264441190" to="36796011#0"/>
    </person>
    <person id="ped62" depart="434.00">
        <walk from="-35835590" to="-986681310#3"/>
    </person>
    <person id="ped63" depart="441.00">
        <walk from="35835493#0" to="-500279618#1"/>
    </person>
    <person id="ped64" depart="448.00">
        <walk from="36783586#0" to="36787099"/>
    </person>
    <person id="ped65" depart="455.00">
        <walk from="-36795872" to="36795966#0"/>
    </person>
    <person id="ped66" depart="462.00">
        <walk from="36783534#0" to="36784276#0"/>
    </person>
    <person id="ped67" depart="469.00">
        <walk from="227817712#0" to="50887298#0"/>
    </person>
    <person id="ped68" depart="476.00">
        <walk from="500279608#3" to="36859046#0"/>
    </person>
    <person id="ped69" depart="483.00">
        <walk from="-35798469#1" to="439404033#0"/>
    </person>
    <person id="ped70" depart="490.00">
        <walk from="445878559#5" to="-1317861094#1"/>
    </person>
    <person id="ped71" depart="497.00">
        <walk from="36858842#0" to="1264441188#0"/>
    </person>
    <person id="ped72" depart="504.00">
        <walk from="33635431#1" to="-129725698#4"/>
    </person>
    <person id="ped73" depart="511.00">
        <walk from="-36783639#1" to="-36783684#1"/>
    </person>
    <person id="ped74" depart="518.00">
        <walk from="-118889589#1" to="36859037#5"/>
    </person>
    <person id="ped75" depart="525.00">
        <walk from="-36784307#3" to="-36796119#2"/>
    </person>
    <person id="ped76" depart="532.00">
        <walk from="43921800#0" to="-1382910833"/>
    </person>
    <person id="ped77" depart="539.00">
        <walk from="36783588#0" to="1379293508#0"/>
    </person>
    <person id="ped78" depart="546.00">
        <walk from="36784276#0" to="-36783682#1"/>
    </person>
    <person id="ped79" depart="553.00">
        <walk from="1014045225#0" to="-36795816#2"/>
    </person>
    <person id="ped80" depart="560.00">
        <walk from="36792197#4" to="-33725328#2"/>
    </person>
    <person id="ped81" depart="567.00">
        <walk from="36783537#0" to="1363130788"/>
    </person>
    <person id="ped82" depart="574.00">
        <walk from="35836134#1" to="-1384307051#1"/>
    </person>
    <person id="ped83" depart="581.00">
        <walk from="-1264415652" to="-36795962#3"/>
    </person>
    <person id="ped84" depart="588.00">
        <walk from="36803735#0" to="36796037#2"/>
    </person>
    <person id="ped85" depart="595.00">
        <walk from="-340173402#3" to="-129705856#9"/>
    </person>
    <person id="ped86" depart="602.00">
        <walk from="36796095#0" to="-36784296#2"/>
    </person>
    <person id="ped87" depart="609.00">
        <walk from="341498245#0" to="36795784#0"/>
    </person>
    <person id="ped88" depart="616.00">
        <walk from="35835646#0" to="-35836086#0"/>
    </person>
    <person id="ped89" depart="623.00">
        <walk from="-36795966#0" to="-36795826#1"/>
    </person>
    <person id="ped90" depart="630.00">
        <walk from="-37356414#3" to="334899877"/>
    </person>
    <person id="ped91" depart="637.00">
        <walk from="36797497#7" to="36784370#0"/>
    </person>
    <person id="ped92" depart="644.00">
        <walk from="-36859234#1" to="-36859236#2"/>
    </person>
    <person id="ped93" depart="651.00">
        <walk from="-227818179#2" to="36855762#0"/>
    </person>
    <person id="ped94" depart="658.00">
        <walk from="36798620#4" to="36795833#0"/>
    </person>
    <person id="ped95" depart="665.00">
        <walk from="36783528#0" to="-36784306#2"/>
    </person>
    <person id="ped96" depart="672.00">
        <walk from="36795792#4" to="-36795809#1"/>
    </person>
    <person id="ped97" depart="679.00">
        <walk from="37229596#0" to="-35835479#2"/>
    </person>
    <person id="ped98" depart="686.00">
        <walk from="-36859037#5" to="-1302261845#4"/>
    </person>
    <person id="ped99" depart="693.00">
        <walk from="-36795962#14" to="-1392402430#2"/>
    </person>
    <person id="ped100" depart="700.00">
        <walk from="-1288863202#3" to="1492457432#1"/>
    </person>
    <person id="ped101" depart="707.00">
        <walk from="23809606#0" to="36796086"/>
    </person>
    <person id="ped102" depart="714.00">
        <walk from="36792193#0" to="-36783544#1"/>
    </person>
    <person id="ped103" depart="721.00">
        <walk from="-36859110" to="36795869#3"/>
    </person>
    <person id="ped104" depart="728.00">
        <walk from="341498245#0" to="36796130#0"/>
    </person>
    <person id="ped105" depart="735.00">
        <walk from="-36795991#1" to="350456002#0"/>
    </person>
    <person id="ped106" depart="742.00">
        <walk from="-36859048#1" to="-1381923540"/>
    </person>
    <person id="ped107" depart="749.00">
        <walk from="36859229#0" to="-36859051#1"/>
    </person>
    <person id="ped108" depart="756.00">
        <walk from="36783540#0" to="446037866#0"/>
    </person>
    <person id="ped109" depart="763.00">
        <walk from="-35798518" to="35303746#0"/>
    </person>
    <person id="ped110" depart="770.00">
        <walk from="-1517228751#1" to="36795861#0"/>
    </person>
    <person id="ped111" depart="777.00">
        <walk from="27121483#2" to="205718510"/>
    </person>
    <person id="ped112" depart="784.00">
        <walk from="-36792200#2" to="-36792197#2"/>
    </person>
    <person id="ped113" depart="791.00">
        <walk from="24488260#0" to="35303777#0"/>
    </person>
    <person id="ped114" depart="798.00">
        <walk from="-35835540" to="-35835643#11"/>
    </person>
    <person id="ped115" depart="805.00">
        <walk from="1382210282" to="36861153#3"/>
    </person>
    <person id="ped116" depart="812.00">
        <walk from="35835643#2" to="129726925#6"/>
    </person>
    <person id="ped117" depart="819.00">
        <walk from="36795959#0" to="-36858839#1"/>
    </person>
    <person id="ped118" depart="826.00">
        <walk from="35303738#0" to="1492457432#1"/>
    </person>
    <person id="ped119" depart="833.00">
        <walk from="36784371#11" to="-36795957#2"/>
    </person>
    <person id="ped120" depart="840.00">
        <walk from="-36795961#1" to="36796098#1"/>
    </person>
    <person id="ped121" depart="847.00">
        <walk from="1303899466" to="500279608#7"/>
    </person>
    <person id="ped122" depart="854.00">
        <walk from="27898844#2" to="36784279#0"/>
    </person>
    <person id="ped123" depart="861.00">
        <walk from="297555100" to="-35835686#2"/>
    </person>
    <person id="ped124" depart="868.00">
        <walk from="-1288872291#4" to="-36796047#2"/>
    </person>
    <person id="ped125" depart="875.00">
        <walk from="-35835697#1" to="37229700#0"/>
    </person>
    <person id="ped126" depart="882.00">
        <walk from="-36858937#1" to="-36859060"/>
    </person>
    <person id="ped127" depart="889.00">
        <walk from="-36784225#1" to="50887394#0"/>
    </person>
    <person id="ped128" depart="896.00">
        <walk from="-36795944#1" to="-36795884#7"/>
    </person>
</routes>
