<?xml version="1.0" encoding="UTF-8"?>

<!-- generated on 2026-06-30 12:29:50.127074 by Eclipse SUMO randomTrips.py v1_27_0+0000-e238ea04b71
<configuration>
    <net-file value="python/scenario/corridor.net.xml"/>
    <output-trip-file value="python/scenario/corridor.ped.trips.xml"/>
    <route-file value="python/scenario/corridor.ped.rou.xml"/>
    <persons value="True"/>
    <prefix value="ped"/>
    <min-distance value="50.0"/>
    <max-distance value="1500.0"/>
    <end value="900.0"/>
    <period value="7.0"/>
</configuration>
-->

<!-- generated on 2026-06-30T12:29:49.528799-05:00 by Eclipse SUMO duarouter 1.27.0
<duarouterConfiguration xmlns:xsi="http://www.w3.org/2001/XMLSchema-instance" xsi:noNamespaceSchemaLocation="http://sumo.dlr.de/xsd/duarouterConfiguration.xsd">

    <input>
        <net-file value="python/scenario/corridor.net.xml"/>
        <route-files value="python/scenario/corridor.ped.trips.xml"/>
    </input>

    <output>
        <output-file value="python/scenario/corridor.ped.rou.xml"/>
        <alternatives-output value="NUL"/>
    </output>

    <processing>
        <routing-threads value="8"/>
    </processing>

    <time>
        <begin value="0.0"/>
        <end value="900.0"/>
    </time>

    <report>
        <no-warnings value="true"/>
        <ignore-errors value="true"/>
        <no-step-log value="true"/>
    </report>

</duarouterConfiguration>
-->

<routes xmlns:xsi="http://www.w3.org/2001/XMLSchema-instance" xsi:noNamespaceSchemaLocation="http://sumo.dlr.de/xsd/routes_file.xsd">
    <person id="ped0" depart="0.00">
        <walk edges="36858794#0 1303899466 -35403961#1 -35403961#2 -35403961#3 -35403961#4 -35403961#5 -35403961#7 25373709#0 40414348#6 40414348#4 35303771#0 35303737 35303723#0 35303709#0"/>
    </person>
    <person id="ped1" depart="7.00">
        <walk edges="225754958#0 446037867#0 -50887390#4 -195058202#1 122317450#0 195056470#0 195056469 50887467#0"/>
    </person>
    <person id="ped2" depart="14.00">
        <walk edges="-36796069#2 -36795984#2 -36795874#1 -43172651#6 -36795834#8 -36795834#3 36795869#3 -36796134#1 -36795922#2 -36795790#5"/>
    </person>
    <person id="ped3" depart="21.00">
        <walk edges="-36783661#1 -36783625#2 36783646#0 -36783631 36783674#0 320464907#0 -320464908#4 340173402#4 340173402#0 1266039232#0 -1246823329#2 -36783569#2 -36783569#6 36783687#0 890834840#0 33635429#2 33635429#0 507321554#0 507321552 437221764#11 437221764#9 437221764#0 437221829#0"/>
    </person>
    <person id="ped4" depart="28.00">
        <walk edges="89185046#0 -36784340#1 36784360#0 36784280#0 1382966533#0 1382966530#0 -205717609#3 161930309#0 369781400 225754959#0 369781401#0 227817711#0 205718509"/>
    </person>
    <person id="ped5" depart="35.00">
        <walk edges="-1073334801#3 -1490021005#2 445892459#0 5023342#1 5023342#5 -5023342#8 -5023342#11 -5379201#0 -5379201#1 36803734#0 36803735#0 -36803738#2 36795834#4 36795834#0 36795869#1 36795871#0 36796046#0 -36795790#1 -36796123#3"/>
    </person>
    <person id="ped6" depart="42.00">
        <walk edges="-25022512#0 -25022512#1 -36783673#1 36783628#0 36787307#0 36787305#0 1467278916 135953624#0"/>
    </person>
    <person id="ped7" depart="49.00">
        <walk edges="890834838#0 890834841#0 -33635429#9 -33635429#1 507321553#0 -507321552 -437221764#11 -437221764#10 -1288003013#2 -1288003013#0 -44705953#19 -44705953#17 -44705953#15 -44705953#14 -44705953#13 -44705953#11 -44705953#10 7955626#1 35835602"/>
    </person>
    <person id="ped8" depart="56.00">
        <walk edges="-36784256#5 -36784256#2 -43326402#13 -43326402#11 -36784197#2"/>
    </person>
    <person id="ped9" depart="63.00">
        <walk edges="36784321#0 36784306#0 -36784308#2 -36784352#1 1381038065 1380158162#0 1380158162#1 1380158162#2 -36783533#1 -36783665#1 36783519#0 36783590 36783512 36783605 36783655#0 -36783672 -36783549#1 36783551#0 -36783584#2 36783510#0"/>
    </person>
    <person id="ped10" depart="70.00">
        <walk edges="-36795777 -36795761 -36796089#2 -1267142218#1 -1267142219 -43174075#1 36796635#0 36795796#0 1264415652 36796043#2 -36795786#2 36796098#0 36795883#6"/>
    </person>
    <person id="ped11" depart="77.00">
        <walk edges="-1484296347#4 -1191384224#5 -1394174431#1 -1475998605#1 36804785#0 36804800#0 -36804810#3 -36804810#5 36804722#0 1317821122#5 1317821122#0 1317837107#0 1317837108 298209255#0 298209255#1"/>
    </person>
    <person id="ped12" depart="84.00">
        <walk edges="940826336#0 940826334#0 -1262843445 -433238970#2 -37237438#2 -438348397 37237437#0 123420333#1 1382963879 1382963880#0 -1382963881#2 -23809601#12 36784856#0 36784344#0 1288872294#0 1288872291#5 -36784266#1 89185047 89185046#0"/>
    </person>
    <person id="ped13" depart="91.00">
        <walk edges="36861136 -36861111#1 -632963007#17 -632963007#11 36861167#0 36861120#3 36861120#1 -36861120#0 36861153#0 36861118#0"/>
    </person>
    <person id="ped14" depart="98.00">
        <walk edges="36796101#2 36795798#2 36795837#3 36795837#5 36795837#7 -36795856#5 -36795856#3 -1446840567#1 -36795859#3 -36796035 -36795819 -36795872 -36795927#1 -36795915#2 -36795848#2 36803735#0 -36803738#2 36795834#4 -36795834#3 -36795869#2 -36795871#1 -36795959#2"/>
    </person>
    <person id="ped15" depart="105.00">
        <walk edges="36784247#0 36784321#0 36784306#0 36784308#0 36784352#0 33725369#0 -36783664#2 36783542#0 -36783623#1"/>
    </person>
    <person id="ped16" depart="112.00">
        <walk edges="36858790#0 -1302261845#4 -1302261845#7 -35403961#0 -35403961#1 -25431645#1"/>
    </person>
    <person id="ped17" depart="119.00">
        <walk edges="36795988#0 36795784#0 36798558#0 43172651#7 -43172651#6 -36803738#2 36803735#0 36803734#0 -5379201#1 -5379201#0 -5023342#11 -36859106#5 -36859106#3 -36859106#2 -36859106#1 -36859108 36859103#0"/>
    </person>
    <person id="ped18" depart="126.00">
        <walk edges="36796056#0 36795892 36795867#0 36795867#2 36795867#3 36795962#6 36795861#0 -36795789#1"/>
    </person>
    <person id="ped19" depart="133.00">
        <walk edges="1267316418#0 36796637#1 36796637#0 36796634#0 36795796#0 1264415652 36796043#2 -36795786#2 36796098#0 -36795977#1"/>
    </person>
    <person id="ped20" depart="140.00">
        <walk edges="-36790143#2 -36790143#1 -36790143#0 -1380158163#1 1380158162#2 1380158162#1 1380158162#0 1381038065 -36784352#1 -36784308#2 -36784306#2 36784200#0 36784198"/>
    </person>
    <person id="ped21" depart="147.00">
        <walk edges="-36796049#5 -36796081#4 -36796081#3 36795793#0 36795793#1 36795793#4 36795793#6 36795976 36796102#0 1264441188#0 1264441189 1264441190 36798563#0 43172205 -36858844#1 -36858844#2 -36858844#3 -36858848#2 -1492963736 36858842#0"/>
    </person>
    <person id="ped22" depart="154.00">
        <walk edges="-1073334800#2 36859028#0 36859052#0 298209360#0 5023342#1 5023342#5 -5023342#8 -5023342#11 -5379201#0 -5379201#1 36803734#0 36803735#0 -36803738#2 36795834#4 -36795875#4"/>
    </person>
    <person id="ped23" depart="161.00">
        <walk edges="-36783562#3 -36783649 36783641#0"/>
    </person>
    <person id="ped24" depart="168.00">
        <walk edges="35835651 36791856#0 36791856#1 44705953#12 44705953#14 44705953#15 44705953#16 44705953#18 1288003013#0 1288003013#1 437221764#9 437221764#11 507321552 507321554#0 33635429#0 33635429#2 890834840#0 36783687#0 -36783569#6 -36783569#2 -1246823329#2"/>
    </person>
    <person id="ped25" depart="175.00">
        <walk edges="36798562#0 36798253#0 36798622#0 36798621#0 -36798620#3 -36798620#7 36797403#0 341498245#0 1014045225#0 36797406#0 36797417#0 -36797533#4 -286784396#1 -286784394#1 286784395 -43224345#2 -24488213#10 37355816#0 -37355817#1 24488203#3"/>
    </person>
    <person id="ped26" depart="182.00">
        <walk edges="-36795803#3 -36795837#1 -36795895#2 36795847#7 -36795847#6 36796137#3 -36796098#4"/>
    </person>
    <person id="ped27" depart="189.00">
        <walk edges="36784187#0 36784195#0 36784348#0 -36784216#3 36784302#0 -33635431#0 -33635431#2 27944954#0 -27898844#10 507699882#0 -286784394#1 286784395 -43224345#2 -24488213#10 -24488213#8 33725045#0 -1495973691#2"/>
    </person>
    <person id="ped28" depart="196.00">
        <walk edges="-437221764#10 -1288003013#2 -1288003013#0 -44705953#19 -44705953#17 -44705953#15 -44705953#14 -44705953#13 -44705953#11 -35835802#1 23747638"/>
    </person>
    <person id="ped29" depart="203.00">
        <walk edges="-44705953#19 -1288003013#0 -1288003013#2 437221764#9 36783626#0 36783632 -36783610#1 -36783638#1"/>
    </person>
    <person id="ped30" depart="210.00">
        <walk edges="-36784199#2 36784351#0 36784297#0 -36784230#1 1380237662 36785024 1417004905 33725369#0 1381038065 1380158162#0 1380158162#1 1380158162#2 36784244#0 -36784196#1 -36784194#3"/>
    </person>
    <person id="ped31" depart="217.00">
        <walk edges="-39871989#2 5025495#0 25373638#0 -25465436#11 -25465436#9 -25465436#7 36859056#0 25465461#1"/>
    </person>
    <person id="ped32" depart="224.00">
        <walk edges="-1288872292#1 -1288872293#1 -1288872291#2 -1288872291#3 -1288872291#4 36784266#0 -89185047 89185046#0 -36784340#1 36784360#0 -36784280#2 -1382966533#1 -1382966530#3 433827565#0 1382749355 433827566 36787665#0 36787094#0 1379275620 50888397#0 227817712#0"/>
    </person>
    <person id="ped33" depart="231.00">
        <walk edges="35835632#0 35836081 -35835651 -35835650 -36792204 36792197#1"/>
    </person>
    <person id="ped34" depart="238.00">
        <walk edges="-35835657 35303742 35836016#0 -35836020#1 123420334 445878559#5 22486628#0 35303720#1 35303720#0 35303745"/>
    </person>
    <person id="ped35" depart="245.00">
        <walk edges="448617604#0 448617603#0 36797400#0 36797413#0 36798620#4 36798620#0 36798624#0 36795879#0 36795954#0 36795944#0 36795821 -36795916#1 -36795778#1 -36796093#2 36795806#0 -36796077#2 -41363958#1"/>
    </person>
    <person id="ped36" depart="252.00">
        <walk edges="-36783514 -36783637#2 36783596#0 -36783661#1 -36783625#2 36783646#0 -36783631 36783674#0 320464907#0 -320464908#4 340173402#4 340173402#0 1266039232#0 1266039233#0 1266039234 -36783686#5"/>
    </person>
    <person id="ped37" depart="259.00">
        <walk edges="50888440#0 369781401#0 225754959#0 369781400 4934658 -26296427#1 -50887390#4 -195058202#1 122317450#0 195056470#0 195056469 50887467#0 50887295#0 50887389#0 50887393#0 252976668#0"/>
    </person>
    <person id="ped38" depart="266.00">
        <walk edges="36796126#0 36795797#0 36795938#0 36795909#0 36795886#0 -36795773#2 -36795777 -36795761 -36796089#2 -1267142218#1 -1267142219 -43174075#1"/>
    </person>
    <person id="ped39" depart="273.00">
        <walk edges="-22486540#1 43171304#0 37229697#0 -37229661#3 -1317861094#1 37229596#0 37229592#0 -37229659#9 -37229659#5 1317849510 43328162#3 43328162#2 -35798499#1 35798480"/>
    </person>
    <person id="ped40" depart="280.00">
        <walk edges="1073334800#0 -1073334800#2 36859028#0 36859046#0"/>
    </person>
    <person id="ped41" depart="287.00">
        <walk edges="36784371#9 36784371#7 36784220#0 36784211 36784183#0 36784226#0 36784325#0 43326402#1 -43326402#0 -43307629#1 43307635#0 43307646#0 43307631#0 43307631#2 -439600156#2 24547748#0 439600161#0"/>
    </person>
    <person id="ped42" depart="294.00">
        <walk edges="-36783643#1 -36783684#1 -36783661#1"/>
    </person>
    <person id="ped43" depart="301.00">
        <walk edges="-36784262#2 -43326402#13 -43326402#14 -1288872292#1 -1288872293#1 -1288872291#2 36784365#0 -36784334#1 36784190#0"/>
    </person>
    <person id="ped44" depart="308.00">
        <walk edges="36783593#0 36783626#0 437221764#11 507321552 507321554#0 33635429#0 -33635429#9 890834841#0 890834838#0 -890834839#2 39206415#0 340174247#0 39206412 39206806"/>
    </person>
    <person id="ped45" depart="315.00">
        <walk edges="35835690#0 -35835681 24488213#0 24488213#3 24488213#4 24488213#6 24488213#9 43224345#0"/>
    </person>
    <person id="ped46" depart="322.00">
        <walk edges="36783603#0 -36783603#2 36783538#0 36783662#0"/>
    </person>
    <person id="ped47" depart="329.00">
        <walk edges="-36796109#0 -36796109#2 -1264454441#2 -1264415651#2 -36796043#0 36795884#5 -36795884#4 -36795884#2 -36796047#2 -36796001#1 -1392698562#2 -1392698562#0 -1392698612#1 -36794903#2 1288863205#0 1288863204 -36784238#3 -36784261 1392402430#0 -36784371#11"/>
    </person>
    <person id="ped48" depart="336.00">
        <walk edges="-25431573#3 -25431573#0 35403961#4 35403961#5 35403961#6 40789190#0 40789190#4 40789190#7 -40789190#8 -40789190#10 36858786#0 42146498#0 123420334 445878559#5 445878559#0 445878558#0 495050538 37229699#0 35836031#1 4932961#0"/>
    </person>
    <person id="ped49" depart="343.00">
        <walk edges="-1381032292#3 -1381032291#5 -1381876542#1 -1381876541 -44705944 -129726925#15 129726925#13 129726925#11 35835643#9 35835643#7 35835641#0 35835617#0 35835651 36791856#0 36792202"/>
    </person>
    <person id="ped50" depart="350.00">
        <walk edges="129726925#6 -129726925#8 -129726925#10 -129726925#12 35835628#0"/>
    </person>
    <person id="ped51" depart="357.00">
        <walk edges="1264441188#0 36795880#0 36795790#0 36796046#0 36795871#0 36795869#1 36795834#0 36795834#4 -36803738#2 36803735#0 -36795848#2 -36796056#2"/>
    </person>
    <person id="ped52" depart="364.00">
        <walk edges="23747638 35835802#0 -44705953#10 -35835632#1 35836081 -35835651 -35835617#1 -35835641#1 35835643#7 35835643#9 129726925#11 129726925#13 -129726925#15 -44705944"/>
    </person>
    <person id="ped53" depart="371.00">
        <walk edges="36792203#0 129726925#2 129726925#1 129726925#0 129725698#0 129725698#3 439600163#0 24547748#0 -439600156#2 -43307631#5 -43307631#1 43307641#0 43307648#0 43329402#0 1499906717 27944957#4 -27898844#1 27898844#2 27898844#6 27898844#7 507699882#0 -286784394#1 286784395 -43224345#2 24488213#9 24488213#6 24488213#4 24488213#3 24488213#0 -35835681 -35835689#5 -35835702#2 -35835688#1 -37229625#2 -35798428#1 -35798436 35798441#0"/>
    </person>
    <person id="ped54" depart="378.00">
        <walk edges="-36795817#2 -36795861#1 -36795962#6 -36795867#4 -36795867#2 -36795867#1 -36795892 -36796056#2 -36795848#2 36803736#0 5379201#1 660176957#0 -768427592#5 36804005#0"/>
    </person>
    <person id="ped55" depart="385.00">
        <walk edges="1446840567#0 -36795856#3 -36795856#5 36795837#7 36795837#5 36795837#3 36795798#2 -36795798#1 36795908#4 36795841#0 36796109#0 1264454442#0 36795776#0 -36795852#2 -36795806#2 -36796077#2 41363958#0 36796121#1"/>
    </person>
    <person id="ped56" depart="392.00">
        <walk edges="-36795861#1 -36795962#6 -36795867#4 -36795867#2 -36795867#1 -36795892 -36796056#2 -36795848#2 36803733#0 36803738#0 43172651#0 -36795874#1 -36795984#2 -36796069#2 -36795952#1"/>
    </person>
    <person id="ped57" depart="399.00">
        <walk edges="-36783533#1 -36783665#1 36783519#0 36783663#0 36783546#0 36783633#0 36783536#0 36783583#0 36783612#0 36783649"/>
    </person>
    <person id="ped58" depart="406.00">
        <walk edges="36858943#0 -36858947#1 -36858949#3 22486648#3 -1489278773#1 36859037#0 36859037#2 36859043#0"/>
    </person>
    <person id="ped59" depart="413.00">
        <walk edges="-36795917#2 -36795812#1 -1390873493#1 -941830567 -1317846851 -1317846850 -1317836869 5284475#0 123420332#1 -1267316415#1 -1267316416 -1352301891#2 -1267316417#1 -1267316418#1 -36796637#3 -36796637#0 1382210282 36796633#0 36796635#0 -43174075#1 -1267142219 -1267142218#1 -1267142217#1 -1267142216 -36861616#2 -36861610"/>
    </person>
    <person id="ped60" depart="420.00">
        <walk edges="-36789580 -1263661530#1 -1263661531#1 -36783693#1 -320607699#1 -1382540968 -320607700#1 -444618382 -36789581#1 -320608752#1 1288003013#1 1288003013#0 44705953#18 44705953#16 44705953#15 44705953#14 -36791853#1 -36791852"/>
    </person>
    <person id="ped61" depart="427.00">
        <walk edges="-1264441190 1264441189 1264441188#0 36796102#0 36795976 36795793#6 36795793#4 -36795793#3 36795913#0 36795921#0 36796011#0"/>
    </person>
    <person id="ped62" depart="434.00">
        <walk edges="-35835590 -35835596 -35835592#1 44705953#4 -35835643#1 -35835643#4 35835643#5 -35835635#1 35835636#0 -129726925#15 -44705944 -1381876541 -1381876542#1 35798442#0 35798420#0 -986681310#3"/>
    </person>
    <person id="ped63" depart="441.00">
        <walk edges="35835493#0 35835488 35835489#0 43224345#0 1317893055#0 43224347 24488218 24488219 306061602#0 -306061603#4 306061601#0 37229599#0 37229596#0 -1317861094#1 -37229661#3 37229697#0 306060296#0 37229702#0 37229696 37229699#0 44311408#0 35303777#0 -35303769#1 -500279618#1"/>
    </person>
    <person id="ped64" depart="448.00">
        <walk edges="36783586#0 -36783676#1 -36783519#1 -36783663#2 -36783546#1 -36783633#1 36783536#0 36783583#0 36783612#0 36783649 36783654#0 36787099"/>
    </person>
    <person id="ped65" depart="455.00">
        <walk edges="-36795872 -36795927#1 -36795915#2 -36795848#2 36803735#0 -36803738#2 36795834#4 36795834#0 36795869#1 36795871#0 36796046#0 36795790#0 1492963732#0 36795966#3 36795966#2 36795966#0"/>
    </person>
    <person id="ped66" depart="462.00">
        <walk edges="36783534#0 -36783616#1 36783680#0 36783520#0 35352000#0 1498325471#0 36783591#0 -36783664#2 1417004905 36785024 1380237662 -36784230#1 36784276#0"/>
    </person>
    <person id="ped67" depart="469.00">
        <walk edges="227817712#0 369781401#0 225754959#0 369781400 4934658 -26296427#1 -50887390#4 -195058202#1 122317450#0 195056470#0 195056469 50887467#0 50887298#0"/>
    </person>
    <person id="ped68" depart="476.00">
        <walk edges="500279608#3 -1302266958#1 -1302266980#1 -1302266980#2 -5023646#4 -1073334800#2 36859028#0 36859046#0"/>
    </person>
    <person id="ped69" depart="483.00">
        <walk edges="-35798469#1 -43326406#3 35835689#0 35835681 24488213#0 24488213#3 24488213#4 24488213#6 24488213#9 43224345#0 1317893055#0 43224347 24488218 24488219 306061602#0 24488260#0 -35798473#6 -37229659#5 -1317849511#2 37229604#0 -37229627#1 37229605#0 439404033#0"/>
    </person>
    <person id="ped70" depart="490.00">
        <walk edges="445878559#5 445878559#0 445878558#0 495050538 37229699#0 37229696 37229702#0 306060296#0 37229697#0 -37229661#3 -1317861094#1"/>
    </person>
    <person id="ped71" depart="497.00">
        <walk edges="36858842#0 -1492963736 -36858848#2 -36858844#3 -36858844#2 -36858844#1 43172205 36798563#0 1264441190 1264441189 1264441188#0"/>
    </person>
    <person id="ped72" depart="504.00">
        <walk edges="33635431#1 14093792#0 -36797497#12 43307638#0 43307641#0 -43307631#1 -43307631#5 -439600156#2 24547748#0 439600164#1 -129725698#4"/>
    </person>
    <person id="ped73" depart="511.00">
        <walk edges="-36783639#1 -36783613#2 -1380158162#1 -1380158162#3 -36783533#1 -36783665#1 36783519#0 -36783663#2 -36783546#1 -36783633#1 -36783536#2 -36783585 -36783528#1 -36783645#1 -36783640#1 -36783636 -36783554#2 36787103#3 36787103#0 36787090 -44705946 835375613#0 36783564#0 36783530#0 36783643#0 -36783684#1"/>
    </person>
    <person id="ped74" depart="518.00">
        <walk edges="-118889589#1 -36858941#3 -36858949#0 -22486648#6 -1489278773#1 36859037#0 36859037#2 36859037#5"/>
    </person>
    <person id="ped75" depart="525.00">
        <walk edges="-36784307#3 36784353#18 1288863201 1288863200 1288863199#0 -1288863198#2 -1288863197#5 -1288863196 36797409#0 36797413#0 36798620#4 36798620#0 36798624#0 36798622#0 36798253#0 36798562#0 36795820#0 -36795988#6 36795952#0 36796069#0 -36796119#2"/>
    </person>
    <person id="ped76" depart="532.00">
        <walk edges="43921800#0 -43921800#1 -226442552 36854987#0 36854990#0 -36854991#1 -36854991#3 -445437308#1 -35800146#1 -445437309 -377675436#1 -1379271145#1 -43737881 -228429615 -1326385908#1 -1431200663 -1326385907 632741898#0 632741895#0 1430894769#0 1326385906#0 -1382910833"/>
    </person>
    <person id="ped77" depart="539.00">
        <walk edges="36783588#0 -36783656#1 -35346428#2 -36783631 36783674#0 320464907#0 -320464908#4 340173402#4 340173402#0 1266039232#0 1266039233#0 1266039234 1266039231#0 39206429#0 39206420#0 39206416#0 1379293508#0"/>
    </person>
    <person id="ped78" depart="546.00">
        <walk edges="36784276#0 -36784230#1 1380237662 36785024 1417004905 -1417004905 -36785024 -1380237662 -1380237661 -36785025 -1379267344 86823934#0 33414856#0 439600159#0 439600159#2 437221763#0 437221829#0 437221764#0 320608752#0 36789581#0 36783635#0 36783527#0 -36783682#1"/>
    </person>
    <person id="ped79" depart="553.00">
        <walk edges="1014045225#0 341498245#0 36797403#0 -36798620#7 -36798620#3 36798621#0 36795879#0 36795954#0 36795944#0 36795821 36795916#0 -36795816#2"/>
    </person>
    <person id="ped80" depart="560.00">
        <walk edges="36792197#4 36792197#3 36792201#0 36792191#0 36792199 36792189#0 -36791851#1 -33725328#2"/>
    </person>
    <person id="ped81" depart="567.00">
        <walk edges="36783537#0 -448500603#6 835375614#0 448500604#0 36787663#0 291406211#0 1467278916 135953624#0 1420861807#0 1420861808 1334846125#0 -50887292#1 377674260#0 252976984#0 375407848 298453340#0 35348906#0 50887297#0 1363130788"/>
    </person>
    <person id="ped82" depart="574.00">
        <walk edges="35836134#1 -35836134#2 -35836134#3 -36791861 -36791859#1 -44705953#19 -1288003013#0 -1288003013#2 -437221764#10 -437221764#11 1447288030 118670825#11 118670825#9 118670825#6 118670825#3 118670825#0 -1384307051#1"/>
    </person>
    <person id="ped83" depart="581.00">
        <walk edges="-1264415652 36795796#0 36796635#0 -43174075#1 -1267142219 -1267142218#1 -36796089#2 -36795761 -36795777 -36795773#2 -36795782#1 -36795856#5 -36795856#3 -1446840567#1 -36795859#3 -36796035 36795962#0 -36795962#3"/>
    </person>
    <person id="ped84" depart="588.00">
        <walk edges="36803735#0 -36803738#2 -43172651#6 36795874#0 36795766 36795846#0 36796122#0 36795800#0 36795891#0 36795947#0 36795956#0 36795776#0 1264454442#0 36796109#0 -36796109#2 -1264454441#2 -1264415651#2 -36796043#0 36795884#5 36795884#3 -36796037#4 36796037#2"/>
    </person>
    <person id="ped85" depart="595.00">
        <walk edges="-340173402#3 -1266039232#1 1266039233#0 1266039234 1266039231#0 39206429#0 39206420#0 340174247#0 39206412 -129705856#9"/>
    </person>
    <person id="ped86" depart="602.00">
        <walk edges="36796095#0 36796086 36796054 36796006#0 -1392698562#2 -1392698562#0 -1392698612#1 -36794903#2 1288863205#0 1288863204 -36784238#3 -36784261 -36784316 -36784366 36784211 36784183#0 36784226#0 36784325#0 43326402#1 -36784296#2"/>
    </person>
    <person id="ped87" depart="609.00">
        <walk edges="341498245#0 36797403#0 -36798620#7 -36798620#3 36798621#0 36798622#0 36798253#0 36798562#0 36795784#0"/>
    </person>
    <person id="ped88" depart="616.00">
        <walk edges="35835646#0 35835638#0 35835643#9 35835643#7 -35835643#6 -35835643#5 -35835643#4 -35835643#1 44705953#4 -44705953#5 -44705953#3 -44705953#0 -44705952 -37229937#8 -35796884#2 35796836 35796817#0 -35836086#0"/>
    </person>
    <person id="ped89" depart="623.00">
        <walk edges="-36795966#0 36795966#2 36795966#3 1492963732#0 36795790#0 36796046#0 36795871#0 36795869#1 36795834#0 36795834#4 -36803738#2 36803735#0 -36795848#2 -36796056#2 -36795892 -36795867#1 -36795867#2 -36795867#4 -36795962#6 -36795962#7 -36795962#10 -36795962#11 -36795962#12 -36795826#1"/>
    </person>
    <person id="ped90" depart="630.00">
        <walk edges="-37356414#3 1414589359#0 1414589360#0 25373638#0 25373638#4 36804783#0 36804793#0 1381923539#0 1381923540 36804807#0 1381927391 36859316#0 44350804#0 36859252#0 36859252#2 36859252#4 137362424#0 137362423#0 334899877"/>
    </person>
    <person id="ped91" depart="637.00">
        <walk edges="36797497#7 -36784302#8 36784216#0 36784330#0 36784370#0"/>
    </person>
    <person id="ped92" depart="644.00">
        <walk edges="-36859234#1 -1492452914 -36859242#1 -36859236#2"/>
    </person>
    <person id="ped93" depart="651.00">
        <walk edges="-227818179#2 -227818179#1 -227818179#0 -35800148#3 -35800148#0 -445437311#0 -35800146#1 -445437309 -377675436#1 -1379271145#1 -43737881 -228429615 -1326385908#1 -1431200663 -1326385907 632741898#0 -36859235#1 36859238 -36859220#2 -36859248#1 334899875#4 334899875#1 36855762#0"/>
    </person>
    <person id="ped94" depart="658.00">
        <walk edges="36798620#4 36798620#0 36798624#0 36798622#0 36798253#0 36798562#0 36795820#0 -36795988#6 -36795952#1 36795833#0"/>
    </person>
    <person id="ped95" depart="665.00">
        <walk edges="36783528#0 -36783585 -36783536#2 -36783633#1 -36783546#1 -36783663#2 36783519#0 -36783665#1 -36783533#1 1380158162#2 1380158162#1 1380158162#0 1381038065 -36784352#1 -36784308#2 -36784306#2"/>
    </person>
    <person id="ped96" depart="672.00">
        <walk edges="36795792#4 36795792#2 36795792#0 -36796102#1 -36795880#2 -36795790#0 -36796046#1 -36795871#1 -36795869#2 -36795834#3 -36795834#8 -43172651#6 -36795874#1 -36795766 -36795846#2 -36796122#1 -36795809#1"/>
    </person>
    <person id="ped97" depart="679.00">
        <walk edges="37229596#0 37229599#0 306061601#0 -306061603#4 306061602#0 24488219 24488218 43224347 1317893055#0 43224345#0 24488213#9 -35835479#2"/>
    </person>
    <person id="ped98" depart="686.00">
        <walk edges="-36859037#5 -36859043#2 36859049#0 1491089984 1073334800#0 1302266980#3 1302266980#2 1302266962#0 -36858794#2 -1303899466 -35403961#0 -1302261845#7 -1302261845#4"/>
    </person>
    <person id="ped99" depart="693.00">
        <walk edges="-36795962#14 -36795962#12 -36795962#11 -36795962#10 -36795962#7 -36795962#6 -36795867#4 -36795867#2 -36795867#1 -36795892 -36796056#2 -36795848#2 36803733#0 36803738#0 43172651#0 43172651#7 36798558#0 36798562#0 36798253#0 36798622#0 36798624#0 36798620#0 36798620#4 36797413#0 36797409#0 -1288863196 -1288863197#5 -1288863198#2 1288863199#0 1288863200 1288863201 36784353#18 -36784353#17 -36784294#6 -1392402430#2"/>
    </person>
    <person id="ped100" depart="700.00">
        <walk edges="-1288863202#3 -1288863204 -1288863205#3 1288863205#0 1288863204 1288863203#0 1288863202#4 1288863201 1288863200 1288863199#0 -1288863198#2 -1288863197#5 -1288863196 36797409#0 36797413#0 36798620#4 -36798620#3 36798621#0 36798623#0 -36798253#3 36798561#0 36798557#0 -43172651#18 -43172651#6 -36795834#8 36795875#1 36795875#0 1492457432#1"/>
    </person>
    <person id="ped101" depart="707.00">
        <walk edges="23809606#0 123420336#0 1317836869 1317846850 1317846851 941830567 1353953505 -1353953506#3 941830569#0 -5341174#3 -1288863209 -1288863210 -1288863208#1 -1288863207#1 -1288863206#1 -36794903#2 -1392698612#1 -1392698562#0 -1392698562#2 36796006#0 36796054 36796086"/>
    </person>
    <person id="ped102" depart="714.00">
        <walk edges="36792193#0 129726925#1 129726925#0 -129725698#2 -129725698#4 439600164#1 86823934#0 -1379267344 -36785025 -1380237661 -1380237662 -36785024 -1417004905 -36783664#2 36783542#0 36783623#0 36783639#0 -36783544#1"/>
    </person>
    <person id="ped103" depart="721.00">
        <walk edges="-36859110 -1491093431#1 -36859103#1 -36859108 -36859106#1 -36859106#2 -36859106#3 -36859106#5 -5023342#11 -5379201#0 -5379201#1 36803734#0 36803735#0 -36803738#2 36795834#4 36795834#0 36795869#3"/>
    </person>
    <person id="ped104" depart="728.00">
        <walk edges="341498245#0 36797403#0 -36798620#7 -36798620#3 36798621#0 36795879#0 36795954#0 36795944#0 36795821 -36795916#1 -36795957#2 36796130#0"/>
    </person>
    <person id="ped105" depart="735.00">
        <walk edges="-36795991#1 1312645393#8 1312645393#10 1312645393#12 1312645393#14 -1312645393#17 36796097#0 1267316417#0 37403951 1267316416 1267316415#0 23809604#0 123420337#0 438348397 634177159 433238970#0 1262843445 940826333#0 940826335#0 1262503063#0 86822602 1262467334 37237436 37237440#0 -607539893#1 607539909 445869392 23799527 373216450#0 23799306#0 33542820#0 350456002#0"/>
    </person>
    <person id="ped106" depart="742.00">
        <walk edges="-36859048#1 -36859053#1 -36859050 -36859036#2 -36859024#2 -1311517187#1 -1311517187#3 -1414589359#3 -1414589360#1 -25373638#3 -25373638#8 36804780#0 36804802#0 -1381923539#2 -1381923540"/>
    </person>
    <person id="ped107" depart="749.00">
        <walk edges="36859229#0 36804006#0 -36804726#13 -36804726#10 1378338180 1317821122#5 1483490008#0 1489280491#0 5756811#2 5756811#3 -36859047#2 -36859051#1"/>
    </person>
    <person id="ped108" depart="756.00">
        <walk edges="36783540#0 36783512 36783590 -36783663#2 -36783546#1 -36783555#1 -36783675#1 -36790143#2 -1378317975 36787098#0 36787096#0 -1379275620 -50888397#3 1425742672 50888454#0 26296426#0 225754959#0 369781400 4934658 -26296427#1 446037866#0"/>
    </person>
    <person id="ped109" depart="763.00">
        <walk edges="-35798518 35798640 35303750 -35303769#1 -35303701 35303706#0 35303709#0 35303725#0 35303759#0 35303724#0 -35303779 35303746#0"/>
    </person>
    <person id="ped110" depart="770.00">
        <walk edges="-1517228751#1 -5379201#1 36803734#0 -36795848#2 -36796056#2 -36795892 -36795867#1 -36795867#2 -36795867#4 -36795962#6 36795861#0"/>
    </person>
    <person id="ped111" depart="777.00">
        <walk edges="27121483#2 -27121483#1 552653338#0 50887394#0 -26296427#1 4934658 369781400 225754959#0 369781401#0 35800155#0 205718510"/>
    </person>
    <person id="ped112" depart="784.00">
        <walk edges="-36792200#2 -36792197#2"/>
    </person>
    <person id="ped113" depart="791.00">
        <walk edges="24488260#0 -306061603#4 306061601#0 37229599#0 37229596#0 -1317861094#1 -37229661#3 37229697#0 306060296#0 37229702#0 37229696 37229699#0 44311408#0 35303777#0"/>
    </person>
    <person id="ped114" depart="798.00">