<?xml version="1.0" encoding="UTF-8"?>

<!-- generated on 2026-06-30 12:29:22.359752 by Eclipse SUMO randomTrips.py v1_27_0+0000-e238ea04b71
<configuration>
    <net-file value="python/scenario/corridor.net.xml"/>
    <output-trip-file value="python/scenario/corridor.bike.trips.xml"/>
    <route-file value="python/scenario/corridor.bike.rou.xml"/>
    <prefix value="bike"/>
    <vehicle-class value="bicycle"/>
    <fringe-factor value="2"/>
    <min-distance value="200.0"/>
    <max-distance value="4000.0"/>
    <end value="900.0"/>
    <period value="11.0"/>
</configuration>
-->

<!-- generated on 2026-06-30T12:29:21.714752-05:00 by Eclipse SUMO duarouter 1.27.0
<duarouterConfiguration xmlns:xsi="http://www.w3.org/2001/XMLSchema-instance" xsi:noNamespaceSchemaLocation="http://sumo.dlr.de/xsd/duarouterConfiguration.xsd">

    <input>
        <net-file value="python/scenario/corridor.net.xml"/>
        <route-files value="python/scenario/corridor.bike.trips.xml"/>
    </input>

    <output>
        <output-file value="python/scenario/corridor.bike.rou.xml"/>
        <alternatives-output value="NUL"/>
    </output>

    <processing>
        <routing-threads value="8"/>
    </processing>

    <time>
        <begin value="0.0"/>
        <end value="900.0"/>
    </time>

    <report>
        <no-warnings value="true"/>
        <ignore-errors value="true"/>
        <no-step-log value="true"/>
    </report>

</duarouterConfiguration>
-->

<routes xmlns:xsi="http://www.w3.org/2001/XMLSchema-instance" xsi:noNamespaceSchemaLocation="http://sumo.dlr.de/xsd/routes_file.xsd">
    <vType id="bike_bicycle" vClass="bicycle"/>
    <vehicle id="bike0" type="bike_bicycle" depart="0.00">
        <route edges="-36795837#4 -36795798#3 -36795798#1 -36795908#3 -36795908#1 -36795781 -1264509788#1 36795858#0 1264509787#0 -36795763#29 -36795763#27 -36795763#25 -36795763#23 36795804#0 -36796001#1 -1392698562#2 -1392698562#0 -1392698612#1 -36794903#2 1288863205#0 1288863204 -36784238#3 -36784261 1392402430#0 -36784371#10 -36784371#8 -36784371#6 -36784371#5 -36784222#1"/>
    </vehicle>
    <vehicle id="bike1" type="bike_bicycle" depart="11.00">
        <route edges="36784367#0 36784367#1 -1392402430#4 -36784371#10 -36784371#8 -36784371#6 -36784371#5 -36784371#2 43326402#6 -36784262#2 36784320#0 36784186 36784305#0 -36784275 -36784281#1 -36784268#1 -36784244#1 -36783533#1 -36783665#1 36783519#0 36783663#0 36783546#0 36783555#0"/>
    </vehicle>
    <vehicle id="bike2" type="bike_bicycle" depart="22.00">
        <route edges="-36784227#3 -36784275 -36784281#1 -36784375#2 -36784198 -36784200#1 -36784306#2 -36784308#2 -36784352#1 -33725369#2 -1417004905 -36785024 -1380237662 1380237662 36785024 1417004905"/>
    </vehicle>
    <vehicle id="bike3" type="bike_bicycle" depart="33.00">
        <route edges="-36784234#1 -36784277#2 -36784255#2 1496766698#0 1175718136#0 -36784308#2 -36784352#1 1381038065 1380158162#0 1380158162#1 1380158162#2 1380158163#0 36790143#0 36790143#1 36790143#2 1378317975 36787095#0 42140524#0 205717853 205717852 205717854#0 287421094#0 302947060#0 189749055#0 189749056#0 291406216#0 27121504#1 551718286#0 282954483#0 1426768093#0 31876575"/>
    </vehicle>
    <vehicle id="bike4" type="bike_bicycle" depart="44.00">
        <route edges="36796037#8 128944340#0 36795795#0 36795835#0 1267316417#0 37403951 1267316416 1267316415#0 23809604#0 123420337#0 438348397 634177159 433238970#0 1262843445 -1262843445"/>
    </vehicle>
    <vehicle id="bike5" type="bike_bicycle" depart="55.00">
        <route edges="36796011#0 -36796011#1 -36796115#1 36796081#4 -36796049#5 -33635431#8 -33635431#2 -33635431#0 36797497#7 43307633#0 43307646#0 43307631#0 43307631#2 43307631#6 439600158#1 33414856#0 439600159#0 439600159#2 437221763#0 437221829#0 437221764#0 -320608752#1 -36789581#1 -36783635#2 -36783527#2 36783682#0"/>
    </vehicle>
    <vehicle id="bike6" type="bike_bicycle" depart="66.00">
        <route edges="448617604#0 448617605#0 448617606#0 36797532#0 -448617603#2 36797402#0 36797403#0 -36798620#7 -36798620#3 36798621#0 36798623#0 -36798253#3 36798561#0 36798557#0 -43172651#18 -43172651#6 -36803738#2 36803735#0 36803734#0 -5379201#1 -5379201#0 -768427592#5 36804005#0 36804006#0 -36804726#13 -36804726#10 1378338180 36804722#0 -36804810#5 -36804810#3"/>
    </vehicle>
    <vehicle id="bike7" type="bike_bicycle" depart="77.00">
        <route edges="-25542120#8 25542120#6 -4935184#3 -36792208#1 -129726925#1 -129726925#0 129725698#0 129725698#3 439600163#0 439600161#0 445927515 1379267345 1380237661 1380237662 36785024 1417004905 33725369#0 1381038065 1380158162#0 1380158162#1 1380158162#2 1380158163#0 36790143#0 36784210#0 -36784349#1 -36784341#1 -25542534#0 -25542534#1"/>
    </vehicle>
    <vehicle id="bike8" type="bike_bicycle" depart="88.00">
        <route edges="36858786#0 -40789190#10 -40789190#8 -40789190#7 -40789190#6 -40789190#3 -25373709#1 40414351#0 40414351#2 40414351#5 -5023684#1 5023707#0 35836020#0 -35836016#2 35303740"/>
    </vehicle>
    <vehicle id="bike9" type="bike_bicycle" depart="99.00">
        <route edges="36796019#0 -36795961#1 -36796095#1 -36796086 -36796054 -36796006#2 -1392698562#2 -1392698562#0 -1392698612#1 -36794903#2 1288863205#0 1288863204 1288863203#0 1288863202#4 -36784353#20 36784353#18"/>
    </vehicle>
    <vehicle id="bike10" type="bike_bicycle" depart="110.00">
        <route edges="-36886052 -36886084#1 -36921184#2 -36886086#1 -36886061#1 -36886072#2 36921168#0 -1380238932#1 -214372068 -214372067 -36921161#1 36921155#0 36921157#0 313908767 36921159 135953403#0 99149311 23799516 4934476 4934476-AddedOffRampEdge 27121806#1 205718510 35800155#0 50888440#0 190539058#0 4934670#0 4934670#2 302947060#0 189749055#0 186587456#0 36787108#1 291406210#0 36787305#0 36787307#0 -36783628#2 36783673#0 25022512#0"/>
    </vehicle>
    <vehicle id="bike11" type="bike_bicycle" depart="121.00">
        <route edges="36797400#0 448617603#0 448617604#0 448617605#0 36797497#0 36797497#7 43307633#0 43307648#0 -43329402#1 -1499906717 -27944957#5 -27944957#3 -27944957#0 -27944956 -33724739#1 -33724739#0 -43326406#10 -43326406#9 -35798511#4 -37229618 -37229625#2 -37229624#2 -35798422#1 35798422#0"/>
    </vehicle>
    <vehicle id="bike12" type="bike_bicycle" depart="132.00">
        <route edges="36784191#0 -36784191#1 -36784257#1 -36784188 -36784241#2 43307631#2 43307631#6 439600158#1 33414856#0 439600159#0 439600159#2 437221763#0 437221829#0 437221764#0 437221764#9 437221764#11 507321552 507321554#0 33635429#0 1388211573#0 -1388211573#1"/>
    </vehicle>
    <vehicle id="bike13" type="bike_bicycle" depart="143.00">
        <route edges="-36784280#2 36784280#0 -1382966532#1 -36784857#7 36784852#0 36784856#0 -23809601#12 -1382963881#2 -1382963880#1 -1429159874#3 23809606#0 123420332#1 -1267316415#1 -1267316416 -1352301891#2 -1267316417#1 -36795835#1 -36795795#2 -128944340#1 -36796037#13 -36796037#7 -36796037#5 -36796037#4 -36796037#3 -36796037#1 -36796018 -1264509787#1 -36795858#1 1264509788#0 36795781 -36795962#14 -36795962#12 -36795962#11 -36795962#10 -36795962#7 -36795962#6 -36795962#5 -36795962#3 -36795962#1 -36795819 -36795872"/>
    </vehicle>
    <vehicle id="bike14" type="bike_bicycle" depart="154.00">
        <route edges="-24488213#10 37355816#0 37355817#0 -24488203#4 -24488203#2 -33725055 -36858732#3 -33724722 -33724741#1 33724739#1 27944956 27944957#0 27944957#1 27944957#4 1499906717 43329402#0 43307645#0 43307639#0 43307629#0 43326402#0 -36784296#2 36784345#0 36784323#0 36784277#0 -36784277#2"/>
    </vehicle>
    <vehicle id="bike15" type="bike_bicycle" depart="165.00">
        <route edges="-27944957#3 27944957#1 27944957#4 1499906717 43329402#0 43307645#0 43307639#0 43307629#0 43326402#0 43326402#1 36784325#0 36784226#0 36784183#0 36784211 36784366 36784316 36784261 36784238#0 -1288863204 -1288863205#3 36794903#0 36794903#3 1392698562#0 1392698562#1 36796001#0 36796047#0 36795884#0 36795884#3 36795884#5 36796043#1 36795786#0 36796098#1 36795831#0 -36795831#1"/>
    </vehicle>
    <vehicle id="bike16" type="bike_bicycle" depart="176.00">
        <route edges="-36795793#3 -36795793#0 36795787#0 1493279918#0 -507699882#2 -27898844#10 27944954#0 -33635431#2 -33635431#0 36797497#7 43307633#0 43307648#0"/>
    </vehicle>
    <vehicle id="bike17" type="bike_bicycle" depart="187.00">
        <route edges="35835638#0 -35835638#2 129726925#11 129726925#13 129726925#14 44705944 1381876541 1381876542#0 1381032291#0 1381032292#0 1381084885#0 1381084886 1381084887 1381084888#0 44705945#0 474021762#0 474021760#0 35798452#0 35798449#0 35798565 35798460#0 -35798459 -1361137684#2 -37229617 37229613#0 37229607#0 37229627#0 37229602#0 1317849510 37229659#0 37229659#6 37229598#0 37229593#0 1317861094#0 37229661#0 37229695#0 37229701#0 37229700#0 42140000#0 445878557#0 306061216#0 -43224066#1 35798639 35798640 35303750 35303777#0"/>
    </vehicle>
    <vehicle id="bike18" type="bike_bicycle" depart="198.00">
        <route edges="-35836134#2 35836134#2 35836134#3 36791861 36791859#0 44705953#18 1288003013#0 1288003013#1 -437221764#8 437221830#0 -437221763#1 -439600159#14 -439600159#1 439600157#0 24547748#0 -439600156#2 -43307631#5 -43307631#1 43307641#0 43307639#0 43307629#0 36784318#0 36784353#3 36784353#7 36784353#12"/>
    </vehicle>
    <vehicle id="bike19" type="bike_bicycle" depart="209.00">
        <route edges="36854676#0 -36854662#1 -371039924 36854624#0 36854988#0 36854991#0 36854991#2 43921065 35800146#0 445437309 377675436#0 1264417462#0 1264417464 1264417465 37403801#0 36861696#0 36861694#0 1267103200 36861608#0 36861610 36861616#0 1267142216 1267142217#0 -36796089#2 -36795761 -36795777 -36795773#2 -36795782#1 -36795837#8 -36795837#6 -36795982#2 -36795789#1 -36795861#1 36795861#0"/>
    </vehicle>
    <vehicle id="bike20" type="bike_bicycle" depart="220.00">
        <route edges="-36784288#2 36784216#0 36784348#0 36784195#0 36784183#0 36784211 36784366 36784316 36784261 36784238#0 -1288863204 -1288863205#3 -1288863206#1 -1288863207#1 -1288863208#1 -1288863210 -1288863209 -5341174#3 941830569#0 -1353953506#3 -1390873493#1 -941830567 -1317846851"/>
    </vehicle>
    <vehicle id="bike21" type="bike_bicycle" depart="231.00">
        <route edges="-36796086 36796086 36796095#0 36795961#0 36795961#2 -36796037#5 36795884#3 36795884#5 36796043#1 36796043#2 1264415652 36795796#0 36796635#0 -43174075#1 -1267142219 -1267142218#1 -36796089#2 -36795761 -36795777 -36795773#2"/>
    </vehicle>
    <vehicle id="bike22" type="bike_bicycle" depart="242.00">
        <route edges="-36784182#1 -36784373#1 -36784351#2 -36784297#1 -36784230#1 -1380237661 -36785025 -1379267344 86823934#0 439600164#1 -129725698#4 -129725698#2 129726925#0 129726925#1 129726925#2 129726925#3 129726925#6 129726925#8 129726925#9 129726925#11 129726925#13 129726925#14 44705944 1381876541 1381876542#0 1381032291#0 1381032292#0 1381084885#0 1381084886 437477408#0"/>
    </vehicle>
    <vehicle id="bike23" type="bike_bicycle" depart="253.00">
        <route edges="36859314#0 -36804807#3 -1381923540 -1381923539#2 36804802#0 36804798#0 36804810#0 36804810#4 36804720#0 36804723#0 1378338179 36804726#11 36804003#0 36804004#0 36804007#0 660176957#0 5379201#1 36803736#0 36795848#0 36796056#0 36795892 36795867#0 36795867#2 36795867#3 36795962#6 36795962#7 36795962#8 36795962#11 36795962#12 36795962#13 -36795781 -1264509788#1 36795858#0 1264509787#0 36796018 36796037#0 36796037#2 36796037#4 -36796037#4"/>
    </vehicle>
    <vehicle id="bike24" type="bike_bicycle" depart="264.00">
        <route edges="35835688#0 35835702#0 43326406#4 43326406#8 43326406#10 33724739#0 33724739#1 27944956 27944957#0 -33724751#1 -129726366#2 -129726366#1 -129726366#0 -1496829322#2 43307631#6 439600158#1 33414856#0 439600159#0 439600159#2 437221763#0 437221829#0 437221764#0 437221764#9 437221764#11 507321552 507321554#0 33635429#0 33635429#2 890834840#0 33635430#0 890834839#0 35348769#0 39206420#0 39206429#0 1266039231#0 -1266039231#4 -39206429#1"/>
    </vehicle>
    <vehicle id="bike25" type="bike_bicycle" depart="275.00">
        <route edges="37236807#0 287421086#0 -37236805#1 37236804 265724837#0 286782351 286782349 286782349-AddedOffRampEdge 286782348 455881114#0 549430885 416992197#0 549422013#0 -1262467334 -433239618#1 -1262503063#1 940826336#0 940826334#0 -1262843445 -433238970#2 -37237438#2 -438348397 37237437#0 123420332#1 -1267316415#1 -1267316416 -1352301891#2 -1267316417#1 -1267316418#1 -36796637#3 -36796637#0 1382210282 36796633#0 36796635#0 -43174075#1 -1267142219 -1267142218#1 -1267142217#1 -1267142216 -36861616#2 -36861610 -36861608#1 -1267103200 36861695#0 1264808026#0 1264808027#2 36861698#0 1264808028#0"/>
    </vehicle>
    <vehicle id="bike26" type="bike_bicycle" depart="286.00">
        <route edges="-36795790#1 -36795790#0 -36795880#2 -36796102#1 -36795976 -36795793#6 -36795793#5 -36795793#3 -36795793#0 36795787#0 1493279918#0 -507699882#2 -27898844#10 27944954#0 -33635431#2 -33635431#0 36784302#0 36784216#0 36784348#0 -36784353#6"/>
    </vehicle>
    <vehicle id="bike27" type="bike_bicycle" depart="297.00">
        <route edges="25542116#2 25542120#6 -4935184#3 -36792208#1 -129726925#1 -129726925#0 129725698#0 129725698#3 439600163#0 24547748#0 -439600156#2 -43307631#5 -43307631#1 43307641#0 43307639#0 43307629#0 43326402#0 43326402#1 36784325#0 36784226#0 36784183#0 36784211 36784366 36784316 36784261 36784238#0 -1288863204 -1288863205#3 36794903#0 -36794903#2"/>
    </vehicle>
    <vehicle id="bike28" type="bike_bicycle" depart="308.00">
        <route edges="-43224348 -1317893055#1 -43224676 286784394#0 -507699882#2 -27898844#10 27944954#0 -33635431#2 -33635431#0 36797497#7 43307633#0 43307639#0 43307629#0 43326402#0 43326402#1 43326402#2 43326402#6 -36784262#2 36784320#0 36784186 36784305#0 -36784275 -36784281#1 -36784268#1 36784196#0 -36784196#1"/>
    </vehicle>
    <vehicle id="bike29" type="bike_bicycle" depart="319.00">
        <route edges="940826333#0 940826334#0 -1262843445 -433238970#2 -37237438#2 -438348397 37237437#0 123420336#0 1317836869 1317846850 1317846851 941830567 1353953505 -417884840#1 -461108535#2 -36784240#3 -36784346 -285904452 36784259#0 -1288872292#1 -43326402#14 -43326402#13 -43326402#11 -36784197#2 -36784277#2 -36784323#1 -36784312 -36784228#1 -36784263 -36784193 36784276#0 -36784230#1 -1380237661 -36785025 -1379267344 86823934#0 33414856#0 439600159#0 439600159#2 437221763#0 437221829#0 437221764#0 437221764#9 437221764#11 -1447288030 -118670825#12 118670825#11 1447288030"/>
    </vehicle>
    <vehicle id="bike30" type="bike_bicycle" depart="330.00">
        <route edges="-25465461#0 -25465461#1 -36859056#1 -25465436#5 1483490008#0 1317821122#5 36804723#0 1378338179 36804726#11 36804003#0 36804004#0 36804007#0 660176957#0 5379201#1 36803736#0 36803733#0 36803738#0 43172651#0 43172651#7 36798558#0 36798562#0 36798253#0 36798622#0 36798624#0 36798620#0 36796090#0 36795769#0 -36795828#2 -1288863199#1 -1288863200 -1288863201 -36784353#20 -36784353#17 36784294#4 1392402430#0 -1392402430#2"/>
    </vehicle>
    <vehicle id="bike31" type="bike_bicycle" depart="341.00">
        <route edges="-33725045#1 -24488213#5 -24488213#3 -24488213#2 -35835681 -35835689#5 -35835702#2 -35835688#1 -37229625#2 -37229624#2 -35798422#1 22486528#10 -35798450#1 -35798449#4 -35798452#16 -474021760#1 -1380179680#2 -44705945#3 -1381084888#1 -1381084887 -1381084886 -1381084885#2 -1381032292#3 -1381032291#5 -1381876542#1 -1381876541 -44705944 -129726925#15 -35835636#2 35798569#0"/>
    </vehicle>
    <vehicle id="bike32" type="bike_bicycle" depart="352.00">
        <route edges="36795936#0 -36795936#5 -36795980#2 36795953#0 36798620#4 36797413#0 36797400#0 448617603#0 448617604#0 448617605#0 36797497#0 36797497#7 43307633#0 43307646#0 43307631#0 43307631#2 43307631#6 439600158#1 439600164#1 -129725698#4 -129725698#2 129726925#0 129726925#1 36792208#0 -4935184#0"/>
    </vehicle>
    <vehicle id="bike33" type="bike_bicycle" depart="363.00">
        <route edges="89185046#0 -89185046#1 -36784340#1 36784360#0 36784280#0 1382966533#0 1382966530#0 433827565#0 1382749355 433827566 36787665#0 42140524#0 205717853 205717852 205717854#0"/>
    </vehicle>
    <vehicle id="bike34" type="bike_bicycle" depart="374.00">
        <route edges="-1266776718#1 36921173#0 36921176#0 313911894#0 36921168#0 -1380238932#1 -214372068 -214372067 -36921161#1 36921155#0 36921157#0 313908767 36921159 135953403#0 99149311 23799516 4934476 4934476-AddedOffRampEdge 27121806#1 205718510 35800155#0 227817712#0 50888397#0 1379275620 36787096#0 36787098#0 -1378317975 -36790143#2 -36790143#1 -36790143#0 -1380158163#1 36784244#0 36784268#0 36784281#0 36784275 -36784305#2 36784305#0"/>
    </vehicle>
    <vehicle id="bike35" type="bike_bicycle" depart="385.00">
        <route edges="36859252#2 36859252#4 137362424#0 334899875#4 36859248#0 36859220#0 -36859238 -36859235#1 632741898#0 -1326385907 -1431200663 -1326385908#1 -228429615 -43737881 -1379271145#1 1264417462#0 1264417464 1264417465 37403801#0 36861696#0 36861694#0 1267103200 36861608#0 36861610 36861616#0 1267142216 1267142217#0 -36796089#2 -36795761"/>
    </vehicle>
    <vehicle id="bike36" type="bike_bicycle" depart="396.00">
        <route edges="1420861807#0 135953624#0 1467278916 36787303#0 -135953624#4 -1420861807#1 -1420861808 -1334846125#1 -50887292#1 377674260#0 377674261#0 377674257 36921396 207232591 36921400 1444513554 -298856103 -1394496446#1 -1393703775#1 -1393703776 -1394097823 61108951#0 61108955#0 -1267048988#2 -36548454#4"/>
    </vehicle>
    <vehicle id="bike37" type="bike_bicycle" depart="407.00">
        <route edges="36795790#2 -36795790#2 -36795790#1 -36795790#0 -36795880#2 1264441187#0 36796071#0 36796118#0 36795868#0 36796103#0 36795784#0 36795988#0 36795973#0 36795945 36795776#0 36795858#0 1264509787#0 36796018 36796037#0 36796037#2 36796037#4 36796037#5 36796037#6 36796037#8 128944340#0 36795795#0 36795835#0 1267316417#0 37403951 1267316416 1267316415#0 23809604#0 123420333#1 1382963879 1382963880#0 1382963881#0 23809601#0 36784855#0 36784853#0 36784857#0 1382966531 1382966533#0 1382966530#0 433827565#0 1382749355 433827566 36787665#0 36787094#0 -1379275620 -50888397#3 1425742672 50888454#0 227817712#0"/>
    </vehicle>
    <vehicle id="bike38" type="bike_bicycle" depart="418.00">
        <route edges="36795858#0 1264509787#0 36796018 36796037#0 36796037#2 36796037#4 36796037#5 36796037#6 36796037#8 128944340#0 36795795#0 36795835#0 1267316417#0 37403951 1267316416 1267316415#0 23809604#0 123420333#1 1382963879 1382963880#0 1382963881#0 23809601#0 36784855#0 36784853#0 36784857#0 1382966531 1382966533#0 1382966530#0 433827565#0 1382749355 433827566 36787665#0 42140524#0 205717853 205717852 205717854#0 287421094#0 302947060#0 189749055#0 189749056#0 291406216#0 27121501#0 -1420861808 -1334846125#1 -50887292#1 377674260#0 377674261#0 377674257 36921396 207232591"/>
    </vehicle>
    <vehicle id="bike39" type="bike_bicycle" depart="429.00">
        <route edges="-1095431556#1 -36795863 36795909#0 36795886#0 -36795847#18 -36795847#16 -36795847#14 -36795847#11 36795883#3 -36796098#8 -36795831#4 -36795831#1 -36796098#2 -36796098#0"/>
    </vehicle>
    <vehicle id="bike40" type="bike_bicycle" depart="440.00">
        <route edges="36861117#0 -36861120#10 -36861120#7 -36861167#2 -36861172#1 -36795894 -36795824 -36796089#2 -36795761 -36795777 -36795773#2 -36795782#1 -36795856#5 -36795856#3 -1446840567#1 -36795859#3 -36796035 -36795819 -36795872 -36795927#1 -36795915#2 -36795848#2 36803733#0"/>
    </vehicle>
    <vehicle id="bike41" type="bike_bicycle" depart="451.00">
        <route edges="-36796019#2 -36796112#3 36795763#26 36795763#28 -1264509787#1 -36795858#1 1264509788#0 36795781 -36795962#14 -36795962#12 -36795962#11 -36795962#10 -36795962#7 -36795962#6 -36795867#4 -36795867#2 -36795867#1 -36795892 -36796056#2 -36795848#2 36803734#0 -5379201#1 -5379201#0 -768427592#5 36804005#0 -445892457#14 -445892457#6 -445892457#3 -445892458#1 -1490021005#2"/>
    </vehicle>
    <vehicle id="bike42" type="bike_bicycle" depart="462.00">
        <route edges="-220546463#8 -43921803 -227818179#0 -35800148#3 -35800148#0 -445437311#0 35800146#0 445437309 377675436#0 1379271145#0 43737881 228429615 1326385908#0 1431200664 1326385907 -14608667 -632741895#1 -1430894769#1 -1326385906#1 -1382910833 -1382910834 -1326385905#1 36859315#0 44350803#0 1278988514 36804723#0 1378338179 36804726#11 36804003#0 36804004#0 36804007#0 660176957#0 5379201#1 36803736#0 36803733#0 36803738#0 43172651#0 43172651#7 36798558#0 36795990#0 -36795868#3 -36796118#1 -36796071#1 -1264441187#1 -36796102#1 36795792#0"/>
    </vehicle>
    <vehicle id="bike43" type="bike_bicycle" depart="473.00">
        <route edges="1317806166 1317806165#0 -445878560#1 -43171751#5 -43171759#1 -43171753 -25431434#2 24488217#1"/>
    </vehicle>
    <vehicle id="bike44" type="bike_bicycle" depart="484.00">
        <route edges="-36795790#1 36796046#0 36795871#0 36795869#1 36795834#0 36795834#4 -36803738#2 36803735#0 36803734#0 -5379201#1 -5379201#0 -768427592#5 36804005#0 36804006#0 -36804726#13 -36804726#10 1378338180 43248793#0 1278988513#0 137363236#0 44350804#0 36859252#0 36859252#2 36859252#4"/>
    </vehicle>
    <vehicle id="bike45" type="bike_bicycle" depart="495.00">
        <route edges="23799280#5 -23799280#14 -23799280#4 -1417197705 23799270#0 287421086#0 -37236805#1 37236804 265724837#0 286782351 286782349 286782349-AddedOffRampEdge 286782348 455881114#0 549430885 416992197#0 549422013#0 -1262467334 -433239618#1 -1262503063#1 940826336#0 940826334#0 -1262843445 -433238970#2 -37237438#2 -438348397 37237437#0 123420336#0 1317836869 1317846850 1317846851 941830567 1353953505 1353953506#0 941830568#0 5341174#0 1288863209 1288863210 1288863208#0 1288863207#0 1288863206#0 1288863205#0 1288863204 -36784238#3 -36784261 -36784316 -36784366 -36784211 -36784183#2 -36784195#2 -36784353#6 -36784353#2 36784353#2"/>
    </vehicle>
    <vehicle id="bike46" type="bike_bicycle" depart="506.00">
        <route edges="-36783639#1 36783639#0 36783613#0 -1380158162#0 -1381038065 36784352#0 36784308#0 -128944702#1 -36784249 -36784208 -36784283#2 -36784228#1 -36784204#1 36784191#0 36784296#0 36784353#0 36784353#2 36784353#3 -36784348#1 -36784216#3 36784248#0 1335851229#0 36795828#0 -36795769#3 36795763#0 36795763#2 36796012#0 -36796012#1"/>
    </vehicle>
    <vehicle id="bike47" type="bike_bicycle" depart="517.00">
        <route edges="890834838#0 890834841#0 -33635429#9 -33635429#1 507321553#0 -507321552 -437221764#11 -437221764#10 -1288003013#2 -1288003013#0 -44705953#19 -44705953#17 -44705953#15 -44705953#14 -44705953#13 -36791856#2 -36791856#0 -35835651 -35835617#1 -35835641#1 35835643#7 35835643#9 35835638#0 35835646#0"/>
    </vehicle>
    <vehicle id="bike48" type="bike_bicycle" depart="528.00">
        <route edges="-89185295#2 -1312645393#15 36796105#0 -89185298#3 36795993#0 -1264415652 -36796043#2 -36796043#1 -36796043#0 -1264415651#2 -1264454441#2 -36796109#2 -36796109#0 -1264454442#1 -36795776#1 -36795945 -36795973#1 -36795988#6 36795820#0 36795990#0 -36795868#3 -36796118#1 -36796071#1 -1264441187#1 1264441188#0 1264441189 1264441190 36798563#0 43172205 36858844#0 36858844#2 36858844#3 36858848#0 1492963736"/>
    </vehicle>
    <vehicle id="bike49" type="bike_bicycle" depart="539.00">
        <route edges="-35303782 35303754 35836016#0 1492963746 36858845 -36858848#2 -36858844#3 -36858844#2 -36858844#1 -43171754#6 -36798563#2 -1264441190 -1264441189 -1264441188#1 1264441187#0 36796071#0 36796118#0 -36795759#1 -36795936#5 -36795980#2 36795953#0 36798620#4 36797413#0 36797400#0 448617603#0 448617604#0 448617605#0 36797497#0 36797497#7 43307633#0 43307639#0 43307629#0 43326402#0 -36784296#2 36784345#0 -36784312 -36784228#1"/>
    </vehicle>
    <vehicle id="bike50" type="bike_bicycle" depart="550.00">
        <route edges="-36784294#6 -36784353#14 36784273#0 -36784366 36784220#0 -36784371#6 -36784371#5 -36784371#2 43326402#6 -36784262#2 -36784223 -36784321#2 36784200#0 -36784200#1"/>
    </vehicle>
    <vehicle id="bike51" type="bike_bicycle" depart="561.00">
        <route edges="-22486528#3 -35798424 -35798437#1 -35798421#1 -35798436 35798428#0 -37229624#2 -37229623#2 -1361137684#2 -37229617 37229613#0 37229607#0 37229627#0 37229602#0 1317849510 37229659#0 37229659#6 37229598#0 37229593#0 1317861094#0 37229661#0 37229695#0 37229701#0 37229700#0 42140001 1317806166 35798650#0 -35303707#1 -35303763#3 35303745 35798707#0 35798707#1"/>
    </vehicle>
    <vehicle id="bike52" type="bike_bicycle" depart="572.00">
        <route edges="-36784287#2 36784287#0 36784340#0 89185046#0 -89185047 36784266#0 -1288872291#4 -1288872291#3 -1288872291#2 -1288872293#1 -1288872292#1 -43326402#14 -43326402#13 -43326402#11 -43326402#3 -43326402#1 -43326402#0 -43307629#1 43307635#0 43307638#0 -36797497#12 14093792#0 33635431#1 -27944954#2 27898844#7 507699882#0 -286784394#1 286784395 1317893055#0 43224347 24488218 24488219 306061602#0 -306061603#4 306061601#0 37229599#0"/>
    </vehicle>
    <vehicle id="bike53" type="bike_bicycle" depart="583.00">
        <route edges="-36784346 -285904452 36784259#0 -285904451#1 -36784270 -36784278 -36784350 -36784275 -36784281#1 -36784268#1 -36784244#1 -36783533#1 -36783665#1 36783519#0 36783590 -36783606#2 -36783563#1 36783520#0 36783644#0 1263661531#0 1263661529#0 -36783690#1 -36783691#2 36783524#0 36783522#0 -36783514 36783514"/>
    </vehicle>
    <vehicle id="bike54" type="bike_bicycle" depart="594.00">
        <route edges="-36784200#1 -36784306#2 -36784308#2 -36784352#1 -33725369#2 -1417004905 -36785024 -1380237662 -1380237661 -36785025 -1379267344 86823934#0 439600164#1 -129725698#4 -129725698#2 129726925#0 129726925#1 129726925#2 129726925#3 129726925#6 129726925#8 129726925#9 129726925#11 129726925#13 129726925#14 44705944 1381876541 1381876542#0 1381032291#0 1381032292#0 1381084885#0 1381084886 1381084887 1381084888#0 44705945#0 474021762#0 474021760#0 35798452#0 -22486527#9 -22486527#3 -35798438#2"/>
    </vehicle>
    <vehicle id="bike55" type="bike_bicycle" depart="605.00">
        <route edges="1312645393#1 -1312645393#2 -1312645393#0 -1312645394 -1312645333#1 -1312645393#17 -1312645393#15 36796105#0 -89185298#3 36796635#0 -43174075#1 -1267142219 -1267142218#1 -36796089#2 -36795761 -36795777 -36795773#2 -36795782#1 -36795856#5 36795975#0 36795870#0 36795907#0"/>
    </vehicle>
    <vehicle id="bike56" type="bike_bicycle" depart="616.00">
        <route edges="36796021#0 -36796021#2 36796037#4 36796037#5 36796037#6 36796037#8 128944340#0 -36795832 -36795882#1 -36796013 -1442630335 -36795951 -36795812#1 -417884840#1 -461108535#2 -36784240#3 -36784346 -285904452 36784259#0 -285904451#1 -36784270 -36784278 -36784350 -36784275 -36784281#1 -36784268#1 -36784244#1 -36783533#1 -36783665#1 -36783676#1 -36783586#1 -36783544#1"/>
    </vehicle>
    <vehicle id="bike57" type="bike_bicycle" depart="627.00">
        <route edges="-5023684#1 5023707#0 35836020#0 1492963746 36858845 -36858848#2 -36858844#3 -36858844#2 -36858844#1 -43171754#6 -36798563#2 -1264441190 -1264441189 -1264441188#1 1264441187#0 36796071#0 36796118#0 -36795759#1 -36795936#5 -36795980#2 36795953#0 36796090#0 36795769#0 -36795828#2 -1288863199#1 -1288863200 -1288863201 -1288863202#6 -1288863202#3 -1288863204 -1288863205#3 -1288863206#1 -1288863207#1 -1288863208#1 -1288863210 -1288863209 1288863209"/>
    </vehicle>
    <vehicle id="bike58" type="bike_bicycle" depart="638.00">
        <route edges="36784334#0 36784205 36784207#0 36784360#0 36784280#0 1382966533#0 1382966530#0 433827565#0 1382749355 433827566 36787665#0 42140524#0 205717853 205717852 205717854#0 205717854#1 36787107#0 195058446 445946531 36787108#1 291406210#0 291406211#0 36787663#0 448500604#0 835375614#0 448500603#0 -36783537#3 36783537#0"/>
    </vehicle>
    <vehicle id="bike59" type="bike_bicycle" depart="649.00">
        <route edges="61108953#0 61108949#0 874152050#0 1266751901 874152049#0 36921180#0 1262557056#0 36921176#0 313911894#0 36921168#0 -1380238932#1 -214372068 -214372067 -36921161#1 36921155#0 36921157#0 313908767 36921159 135953403#0 99149311 23799516 23799520#0 122317450#0 -195058202#1 -50887390#4 -26296427#1"/>
    </vehicle>
    <vehicle id="bike60" type="bike_bicycle" depart="660.00">
        <route edges="36859046#0 36859052#0 298209360#0 5023342#1 5023342#5 5023342#7 5023342#9 660176957#0 5379201#1 36803736#0 36803733#0 36803738#0 43172651#0 43172651#7 36798558#0 36798562#0 36798253#0 36798622#0 36798624#0 36798620#0 36798620#4 36797413#0 36797400#0 448617603#0 448617604#0 448617605#0 36797497#0 36797497#7 43307633#0 43307639#0 43307629#0 43326402#0 -36784296#2 -36784191#1 36784204#0 -36784263 -36784362#1"/>
    </vehicle>
    <vehicle id="bike61" type="bike_bicycle" depart="671.00">
        <route edges="-36783582#3 -36783584#2 -36783551#1 36783549#0 36783672 -36783655#2 -36783605 -36783512 -36783590 -36783519#1 36783665#0 36783533#0 -1380158162#3 -1380158162#1 -1380158162#0 -1381038065 -33725369#2 -1417004905 -36785024 -1380237662 -1380237661 -36785025 -1379267344 86823934#0 24547748#0 -439600156#2 1496829322#0 129726366#0 129726366#1 129726366#2 33724751#0 -27944957#0 -27944956 -33724739#1 33724741#0 33724722 36858732#0 33725055 118889157#0"/>
    </vehicle>
    <vehicle id="bike62" type="bike_bicycle" depart="682.00">
        <route edges="-500279608#9 -500279608#6 1491085058#0 1302266962#0 1302266980#2 1302266980#3 1073334800#0 1491089984 1073334801#0 1490021005#0 445892458#0 445892457#1 445892457#4 445892457#7 36804004#0 36804007#0 660176957#0 5379201#1 36803736#0 36803733#0 36803738#0 43172651#0 36795874#0 36795984#0 36796069#0 36795833#0 -36795833#1"/>
    </vehicle>
    <vehicle id="bike63" type="bike_bicycle" depart="693.00">